                                  MODFLOW-2005     
      U.S. GEOLOGICAL SURVEY MODULAR FINITE-DIFFERENCE GROUND-WATER FLOW MODEL
                            VERSION 1.11.00 8/8/2013

 LIST FILE: freyberg.list
                         UNIT    2

 OPENING freyberg.hyd
 FILE TYPE:HYD   UNIT   36   STATUS:OLD    
 FORMAT:FORMATTED              ACCESS:SEQUENTIAL          

 OPENING freyberg.dis
 FILE TYPE:DIS   UNIT   11   STATUS:OLD    
 FORMAT:FORMATTED              ACCESS:SEQUENTIAL          

 OPENING freyberg_pp.lpf
 FILE TYPE:LPF   UNIT   31   STATUS:OLD    
 FORMAT:FORMATTED              ACCESS:SEQUENTIAL          

 OPENING freyberg.pcg
 FILE TYPE:PCG   UNIT   32   STATUS:OLD    
 FORMAT:FORMATTED              ACCESS:SEQUENTIAL          

 OPENING freyberg.bas
 FILE TYPE:BAS6   UNIT   13   STATUS:OLD    
 FORMAT:FORMATTED              ACCESS:SEQUENTIAL          

 OPENING freyberg.rch
 FILE TYPE:RCH   UNIT   19   STATUS:OLD    
 FORMAT:FORMATTED              ACCESS:SEQUENTIAL          

 OPENING freyberg.wel
 FILE TYPE:WEL   UNIT   20   STATUS:OLD    
 FORMAT:FORMATTED              ACCESS:SEQUENTIAL          

 OPENING freyberg.riv
 FILE TYPE:RIV   UNIT   18   STATUS:OLD    
 FORMAT:FORMATTED              ACCESS:SEQUENTIAL          

 OPENING freyberg.oc
 FILE TYPE:OC   UNIT   14   STATUS:OLD    
 FORMAT:FORMATTED              ACCESS:SEQUENTIAL          

 OPENING freyberg.hds
 FILE TYPE:DATA(BINARY)   UNIT   51   STATUS:REPLACE
 FORMAT:UNFORMATTED            ACCESS:STREAM              

 OPENING freyberg.ddn
 FILE TYPE:DATA(BINARY)   UNIT   52   STATUS:REPLACE
 FORMAT:UNFORMATTED            ACCESS:STREAM              

 OPENING freyberg.cbc
 FILE TYPE:DATA(BINARY)   UNIT   53   STATUS:REPLACE
 FORMAT:UNFORMATTED            ACCESS:STREAM              

 OPENING freyberg.hyd.bin
 FILE TYPE:DATA(BINARY)   UNIT  536   STATUS:REPLACE
 FORMAT:UNFORMATTED            ACCESS:STREAM              

 BAS -- BASIC PACKAGE, VERSION 7, 5/2/2005 INPUT READ FROM UNIT   13

 MODFLOW was compiled using mixed precision
 Precision of REAL variables:           6
 Precision of DOUBLE PRECISION variables:          15

 DISCRETIZATION INPUT DATA READ FROM UNIT   11
 # Discretization file for MODFLOW, generated by Flopy.
    1 LAYERS        40 ROWS        20 COLUMNS
    3 STRESS PERIOD(S) IN SIMULATION
 MODEL TIME UNIT IS DAYS
 MODEL LENGTH UNIT IS METERS
  Confining bed flag for each layer:
   0



                               DELR
 READING ON UNIT   11 WITH FORMAT: (20G15.6)           



                               DELC
 READING ON UNIT   11 WITH FORMAT: (40G15.6)           

 TOP ELEVATION OF LAYER 1 =   35.0000    

 OPENING FILE ON UNIT   99:
 botm.ref                                                                                                                                                                                                



             MODEL LAYER BOTTOM EL. FOR LAYER   1
 READING ON UNIT   99 WITH FORMAT: (10E12.4)           


 STRESS PERIOD     LENGTH       TIME STEPS     MULTIPLIER FOR DELT    SS FLAG
 ----------------------------------------------------------------------------
        1         1.000000          1                    1.000         SS
        2         1825.000          1                    1.000         TR
        3         1.000000          1                    1.000         SS

 COMBINED STEADY-STATE AND TRANSIENT SIMULATION




 # Basic package file for MODFLOW, generated by Flopy.                           
 THE FREE FORMAT OPTION HAS BEEN SELECTED

 OPENING FILE ON UNIT   99:
 ibound.ref                                                                                                                                                                                              



                     BOUNDARY ARRAY FOR LAYER   1
 READING ON UNIT   99 WITH FORMAT: (25I3)              

 AQUIFER HEAD WILL BE SET TO  -999.99     AT ALL NO-FLOW NODES (IBOUND=0).

 OPENING FILE ON UNIT   99:
 strt.ref                                                                                                                                                                                                



                       INITIAL HEAD FOR LAYER   1
 READING ON UNIT   99 WITH FORMAT: (10E12.4)           
 # Output control package file for MODFLOW, generated by Flopy.

 OUTPUT CONTROL IS SPECIFIED ONLY AT TIME STEPS FOR WHICH OUTPUT IS DESIRED
 COMPACT CELL-BY-CELL BUDGET FILES WILL BE WRITTEN
 AUXILIARY DATA WILL BE SAVED IN CELL-BY-CELL BUDGET FILES
 HEAD PRINT FORMAT CODE IS   0    DRAWDOWN PRINT FORMAT CODE IS   0
 HEADS WILL BE SAVED ON UNIT   51    DRAWDOWNS WILL BE SAVED ON UNIT   52

 LPF -- LAYER-PROPERTY FLOW PACKAGE, VERSION 7, 5/2/2005
         INPUT READ FROM UNIT   31
 # LPF for MODFLOW-2005, generated by Flopy.
 CELL-BY-CELL FLOWS WILL BE SAVED ON UNIT   53
 HEAD AT CELLS THAT CONVERT TO DRY= -1.00000E+30
 No named parameters

   LAYER FLAGS:
 LAYER       LAYTYP        LAYAVG         CHANI        LAYVKA        LAYWET
 ---------------------------------------------------------------------------
    1             1             0     1.000E+00             0             0

   INTERPRETATION OF LAYER FLAGS:
                        INTERBLOCK     HORIZONTAL    DATA IN
         LAYER TYPE   TRANSMISSIVITY   ANISOTROPY   ARRAY VKA   WETTABILITY
 LAYER      (LAYTYP)      (LAYAVG)       (CHANI)      (LAYVKA)      (LAYWET)
 ---------------------------------------------------------------------------
    1   CONVERTIBLE      HARMONIC     1.000E+00    VERTICAL K  NON-WETTABLE

 WETTING CAPABILITY IS NOT ACTIVE IN ANY LAYER

 OPENING FILE ON UNIT   99:
 hk.ref                                                                                                                                                                                                  



              HYD. COND. ALONG ROWS FOR LAYER   1
 READING ON UNIT   99 WITH FORMAT: (FREE)              

      VERTICAL HYD. COND. =   1.00000     FOR LAYER   1

         SPECIFIC STORAGE =  1.000000E-04 FOR LAYER   1

           SPECIFIC YIELD =  0.250000     FOR LAYER   1

 WEL -- WELL PACKAGE, VERSION 7, 5/2/2005 INPUT READ FROM UNIT   20
 # Well file for MODFLOW, generated by Flopy.
 No named parameters
 MAXIMUM OF      6 ACTIVE WELLS AT ONE TIME


     0 Well parameters

 RIV -- RIVER PACKAGE, VERSION 7, 5/2/2005 INPUT READ FROM UNIT   18
 # RIV for MODFLOW, generated by Flopy.
 No named parameters
 MAXIMUM OF     40 ACTIVE RIVER REACHES AT ONE TIME


     0 River parameters

 RCH -- RECHARGE PACKAGE, VERSION 7, 5/2/2005 INPUT READ FROM UNIT   19
 # RCH for MODFLOW, generated by Flopy.
 No named parameters
 OPTION 3 -- RECHARGE TO HIGHEST ACTIVE NODE IN EACH VERTICAL COLUMN


     0 Recharge parameters

 PCG -- CONJUGATE-GRADIENT SOLUTION PACKAGE, VERSION 7, 5/2/2005
 MAXIMUM OF    100 CALLS OF SOLUTION ROUTINE
 MAXIMUM OF     25 INTERNAL ITERATIONS PER CALL TO SOLUTION ROUTINE
 MATRIX PRECONDITIONING TYPE :    1
 IHCOFADD option -- When an active cell is surrounded by dry cells, convert
 the cell to dry only if storage and head-dependent boundary flow are 0.



                                    SOLUTION BY THE CONJUGATE-GRADIENT METHOD
                                   -------------------------------------------
                    MAXIMUM NUMBER OF CALLS TO PCG ROUTINE =      100
                        MAXIMUM ITERATIONS PER CALL TO PCG =       25
                               MATRIX PRECONDITIONING TYPE =        1
        RELAXATION FACTOR (ONLY USED WITH PRECOND. TYPE 1) =    0.10000E+01
 PARAMETER OF POLYNOMIAL PRECOND. = 2 (2) OR IS CALCULATED :        2
                         HEAD CHANGE CRITERION FOR CLOSURE =    0.10000E-04
                     RESIDUAL CHANGE CRITERION FOR CLOSURE =    0.10000E+00
            PCG HEAD AND RESIDUAL CHANGE PRINTOUT INTERVAL =        5
     PRINTING FROM SOLVER IS LIMITED(1) OR SUPPRESSED (>1) =        0
                            STEADY-STATE DAMPING PARAMETER =    0.70000E+00
                               TRANSIENT DAMPING PARAMETER =    0.70000E+00

 HYD -- HYDROGRAPH DATA FOR BAS PACKAGE, VERSION 7, 07/14/2006
         INPUT READ FROM UNIT 36
 HYDROGRAPH VALUES WILL BE SAVED ON UNIT: 536
 HYDROGRAPH VALUES AT DRY CELLS WILL BE:  -1.00000E+07

 ARR INTYP  KLAY     XL            YL         HYDLBL
 ----------------------------------------------------------------
 HD   I      1   4.12500E+03   9.12500E+03  HDI001or03c16       
 HD   I      1   2.62500E+03   9.12500E+03  HDI001or03c10       
 HD   I      1   2.37500E+03   8.87500E+03  HDI001or04c9        
 HD   I      1   6.25000E+02   7.37500E+03  HDI001or10c2        
 HD   I      1   2.87500E+03   6.37500E+03  HDI001or14c11       
 HD   I      1   4.37500E+03   5.87500E+03  HDI001or16c17       
 HD   I      1   2.87500E+03   4.37500E+03  HDI001or22c11       
 HD   I      1   4.12500E+03   4.12500E+03  HDI001or23c16       
 HD   I      1   1.37500E+03   3.62500E+03  HDI001or25c5        
 HD   I      1   1.87500E+03   3.12500E+03  HDI001or27c7        
 HD   I      1   4.12500E+03   2.37500E+03  HDI001or30c16       
 HD   I      1   2.12500E+03   1.37500E+03  HDI001or34c8        
 HD   I      1   2.87500E+03   1.12500E+03  HDI001or35c11       
 HD   I      1   6.25000E+02   9.37500E+03  HDI001fr02c02       
 HD   I      1   3.37500E+03   9.62500E+03  HDI001fr01c13       
 HD   I      1   3.87500E+03   7.62500E+03  HDI001fr09c15       
 HD   I      1   2.62500E+03   3.62500E+03  HDI001fr25c10       
1
                            STRESS PERIOD NO.    1, LENGTH =   1.000000    
                            -----------------------------------------------

                              NUMBER OF TIME STEPS =     1

                               MULTIPLIER FOR DELT =     1.000

                            INITIAL TIME STEP SIZE =   1.000000    

 WELL NO.  LAYER   ROW   COL   STRESS RATE         
 --------------------------------------------------
      1      1      9     16      -628.8    
      2      1     11     13      -330.9    
      3      1     20     14      -339.7    
      4      1     26     10      -66.29    
      5      1     29      6      -64.28    
      6      1     34     12      -444.3    

      6 WELLS

 REACH NO.  LAYER   ROW   COL     STAGE      CONDUCTANCE     BOTTOM EL.         
 -------------------------------------------------------------------------------
      1      1      1     15       20.19           5776.           20.00    
      2      1      2     15       19.60           3790.           19.75    
      3      1      3     15       19.89           5532.           19.50    
      4      1      4     15       19.38           6135.           19.25    
      5      1      5     15       19.28           5536.           19.00    
      6      1      6     15       19.22           3842.           18.75    
      7      1      7     15       18.90           2866.           18.50    
      8      1      8     15       18.42           4318.           18.25    
      9      1      9     15       18.10           4796.           18.00    
     10      1     10     15       18.88           4638.           17.75    
     11      1     11     15       18.01           4619.           17.50    
     12      1     12     15       17.35           5474.           17.25    
     13      1     13     15       17.33           3453.           17.00    
     14      1     14     15       17.56           6251.           16.75    
     15      1     15     15       16.76           5307.           16.50    
     16      1     16     15       16.28           6982.           16.25    
     17      1     17     15       16.41           5070.           16.00    
     18      1     18     15       15.91           4556.           15.75    
     19      1     19     15       16.06           5303.           15.50    
     20      1     20     15       16.06           4765.           15.25    
     21      1     21     15       15.52           5390.           15.00    
     22      1     22     15       15.39           2649.           14.75    
     23      1     23     15       15.16           4347.           14.50    
     24      1     24     15       15.01           5110.           14.25    
     25      1     25     15       14.90           3705.           14.00    
     26      1     26     15       14.49           3711.           13.75    
     27      1     27     15       14.17           4484.           13.50    
     28      1     28     15       14.01           4405.           13.25    
     29      1     29     15       13.73           5105.           13.00    
     30      1     30     15       13.58           5620.           12.75    
     31      1     31     15       13.32           3492.           12.50    
     32      1     32     15       13.14           5515.           12.25    
     33      1     33     15       12.85           4310.           12.00    
     34      1     34     15       12.55           6270.           11.75    
     35      1     35     15       12.22           5453.           11.50    
     36      1     36     15       12.25           4212.           11.25    
     37      1     37     15       11.85           6121.           11.00    
     38      1     38     15       11.90           6083.           10.75    
     39      1     39     15       11.48           3721.           10.50    
     40      1     40     15       11.24           5427.           10.25    

     40 RIVER REACHES

                 RECHARGE =  1.251112E-03

 SOLVING FOR HEAD 


    31 CALLS TO PCG ROUTINE FOR TIME STEP   1 IN STRESS PERIOD    1
   532 TOTAL ITERATIONS

 MAXIMUM HEAD CHANGE FOR EACH ITERATION (1 INDICATES THE FIRST INNER ITERATION):

    HEAD CHANGE    HEAD CHANGE    HEAD CHANGE    HEAD CHANGE    HEAD CHANGE 
   LAYER,ROW,COL  LAYER,ROW,COL  LAYER,ROW,COL  LAYER,ROW,COL  LAYER,ROW,COL
 ---------------------------------------------------------------------------
  1  0.6124E+10  0  0.1891E+10  0 -0.5218E+07  0 -0.1028E+09  0  0.1696E+07
   (  1,  4, 12)  (  1,  5, 13)  (  1,  5, 14)  (  1,  5, 14)  (  1,  5, 13)
  0  0.2108E+07  0  0.2677E+07  0  0.2189E+06  0 -0.5571E+05  0 -0.1085E+06
   (  1,  5, 13)  (  1,  5, 13)  (  1,  5, 13)  (  1,  5, 13)  (  1,  5, 13)
  0 -0.3220E+05  0 -0.9036E+05  0 -0.2662E+05  0   9057.      0   3571.    
   (  1,  5, 13)  (  1,  5, 13)  (  1,  5, 13)  (  1,  5, 12)  (  1,  5, 12)
  0   3440.      0   760.4      0  -471.8      0  -106.6      0  -96.64    
   (  1,  5, 12)  (  1,  5, 12)  (  1,  4, 13)  (  1,  4, 13)  (  1,  5, 12)
  0  -140.7      0  -52.82      0  -14.54      0  -4.431      0   1.565    
   (  1,  5, 12)  (  1,  5, 12)  (  1,  5, 12)  (  1,  5, 12)  (  1,  4, 13)
  1  0.1837E+10  0  0.5667E+09  0  0.1507E+07  0 -0.3110E+08  0  0.4439E+06
   (  1,  4, 12)  (  1,  5, 13)  (  1,  5, 13)  (  1,  5, 14)  (  1,  5, 13)
  0  0.7496E+06  0  0.7075E+06  0  0.4198E+05  0 -0.2047E+05  0 -0.4173E+05
   (  1,  5, 13)  (  1,  5, 13)  (  1,  5, 13)  (  1,  5, 13)  (  1,  5, 13)
  0 -0.1838E+05  0 -0.1618E+05  0  -6443.      0   2505.      0   1002.    
   (  1,  5, 13)  (  1,  5, 13)  (  1,  5, 13)  (  1,  5, 12)  (  1,  5, 12)
  0   745.0      0   208.7      0  -59.21      0  -13.01      0  -22.51    
   (  1,  5, 12)  (  1,  5, 12)  (  1,  4, 13)  (  1,  4, 13)  (  1,  5, 12)
  0  -33.71      0  -12.25      0  -3.861      0  -1.771      0  0.3049    
   (  1,  5, 12)  (  1,  5, 12)  (  1,  5, 12)  (  1,  5, 12)  (  1,  4, 13)
  1  0.5512E+09  0  0.1693E+09  0  0.1133E+07  0 -0.9175E+07  0 -0.2668E+06
   (  1,  4, 12)  (  1,  5, 13)  (  1,  5, 13)  (  1,  5, 14)  (  1,  5, 14)
  0  0.1533E+06  0  0.2540E+06  0  0.4613E+05  0   2785.      0 -0.2180E+05
   (  1,  5, 13)  (  1,  5, 13)  (  1,  5, 13)  (  1,  4, 13)  (  1,  5, 13)
  0  -3119.      0  -2201.      0   1383.      0   1018.      0   355.1    
   (  1,  5, 13)  (  1,  5, 13)  (  1,  5, 12)  (  1,  5, 12)  (  1,  5, 12)
  0   286.9      0   66.97      0  -26.71      0  -3.101      0  -9.765    
   (  1,  5, 12)  (  1,  5, 12)  (  1,  4, 13)  (  1,  5, 12)  (  1,  5, 12)
  0  -1.978      0  -2.958      0 -0.9299      0 -0.3667      0  0.4862E-01
   (  1,  5, 12)  (  1,  5, 12)  (  1,  5, 12)  (  1,  5, 12)  (  1,  4, 13)
  1  0.1653E+09  0  0.5102E+08  0  0.1268E+06  0 -0.2659E+07  0 -0.1557E+06
   (  1,  4, 12)  (  1,  5, 13)  (  1,  5, 13)  (  1,  5, 14)  (  1,  5, 14)
  0  0.3299E+05  0  0.7066E+05  0  0.3352E+05  0  -1724.      0  -4939.    
   (  1,  5, 13)  (  1,  5, 13)  (  1,  5, 13)  (  1,  5, 12)  (  1,  5, 13)
  0  -2157.      0  -793.6      0  -828.9      0   363.8      0   143.0    
   (  1,  5, 13)  (  1,  5, 13)  (  1,  5, 13)  (  1,  5, 12)  (  1,  5, 12)
  0   112.7      0   23.12      0  -9.750      0  -1.718      0 -0.6835    
   (  1,  5, 12)  (  1,  5, 12)  (  1,  4, 13)  (  1,  4, 13)  (  1,  5, 12)
  0  -3.095      0  -1.183      0 -0.5142      0 -0.1779      0 -0.2203E-01
   (  1,  5, 12)  (  1,  5, 12)  (  1,  5, 12)  (  1,  5, 12)  (  1,  5, 12)
  1  0.4960E+08  0  0.1528E+08  0  0.6672E+05  0 -0.7781E+06  0 -0.6928E+05
   (  1,  4, 12)  (  1,  5, 13)  (  1,  5, 13)  (  1,  5, 14)  (  1,  5, 14)
  0   9270.      0  0.1905E+05  0  0.1293E+05  0   1083.      0  -836.9    
   (  1,  5, 13)  (  1,  5, 13)  (  1,  5, 13)  (  1,  5, 13)  (  1,  5, 13)
  0  -890.9      0  -325.4      0  -471.3      0  -120.4      0   60.73    
   (  1,  5, 13)  (  1,  5, 13)  (  1,  5, 13)  (  1,  5, 13)  (  1,  5, 12)
  0   28.92      0   18.68      0   5.730      0  -1.936      0 -0.6295E-01
   (  1,  5, 12)  (  1,  5, 12)  (  1,  5, 12)  (  1,  4, 13)  (  1,  4, 13)
  0 -0.9709      0 -0.4874      0 -0.2069      0 -0.8508E-01  0 -0.1340E-01
   (  1,  5, 12)  (  1,  5, 12)  (  1,  5, 12)  (  1,  5, 12)  (  1,  5, 12)
  1  0.1488E+08  0  0.4552E+07  0  0.4998E+05  0 -0.2167E+06  0 -0.3735E+05
   (  1,  4, 12)  (  1,  5, 13)  (  1,  5, 13)  (  1,  5, 14)  (  1,  5, 14)
  0   2858.      0   4574.      0   4900.      0   596.4      0  -154.4    
   (  1,  5, 13)  (  1,  5, 13)  (  1,  5, 13)  (  1,  5, 13)  (  1,  5, 13)
  0  -292.5      0  -83.35      0  -181.8      0  -53.53      0   23.26    
   (  1,  5, 13)  (  1,  5, 13)  (  1,  5, 13)  (  1,  5, 13)  (  1,  5, 12)
  0   8.805      0   5.824      0   1.880      0 -0.8543      0 -0.1919E-01
   (  1,  5, 12)  (  1,  5, 12)  (  1,  5, 12)  (  1,  4, 13)  (  1,  4, 13)
  0 -0.1912      0 -0.1897      0 -0.7451E-01  0 -0.3456E-01  0 -0.8148E-02
   (  1,  5, 12)  (  1,  5, 12)  (  1,  5, 12)  (  1,  5, 12)  (  1,  5, 12)
  1  0.4465E+07  0  0.1369E+07  0  0.1212E+05  0 -0.5746E+05  0 -0.1856E+05
   (  1,  4, 12)  (  1,  5, 13)  (  1,  5, 13)  (  1,  5, 14)  (  1,  5, 14)
  0   911.1      0   1179.      0   1579.      0   267.9      0  -35.15    
   (  1,  5, 13)  (  1,  5, 13)  (  1,  5, 13)  (  1,  5, 13)  (  1,  5, 13)
  0  -87.70      0  -43.72      0  -31.13      0  -23.72      0  -8.609    
   (  1,  5, 13)  (  1,  5, 13)  (  1,  5, 13)  (  1,  5, 13)  (  1,  5, 13)
  0   2.706      0   1.730      0  0.5717      0 -0.2917      0  0.1934E-01
   (  1,  5, 12)  (  1,  5, 12)  (  1,  5, 12)  (  1,  4, 13)  (  1,  5, 13)
  0 -0.1456E-01  0 -0.5637E-01  0 -0.2798E-01  0 -0.1541E-01  0 -0.3656E-02
   (  1,  5, 12)  (  1,  5, 12)  (  1,  5, 12)  (  1,  5, 12)  (  1,  5, 12)
  1  0.1339E+07  0  0.4131E+06  0   1142.      0 -0.1492E+05  0  -7723.    
   (  1,  4, 12)  (  1,  5, 13)  (  1,  5, 13)  (  1,  5, 14)  (  1,  5, 14)
  0   291.6      0   342.6      0   469.2      0   93.29      0  -9.113    
   (  1,  5, 13)  (  1,  5, 13)  (  1,  5, 13)  (  1,  5, 13)  (  1,  5, 13)
  0  -21.04      0  -9.311      0  -18.87      0  -6.541      0  -2.657    
   (  1,  5, 13)  (  1,  5, 13)  (  1,  5, 13)  (  1,  5, 13)  (  1,  5, 13)
  0  0.8690      0  0.5484      0  0.1771      0 -0.9051E-01  0 -0.6766E-02
   (  1,  5, 12)  (  1,  5, 12)  (  1,  5, 12)  (  1,  4, 13)  (  1,  4, 13)
  0 -0.2944E-02  0 -0.1534E-01  0 -0.1113E-01  0 -0.5486E-02  0 -0.1310E-02
   (  1,  5, 12)  (  1,  5, 12)  (  1,  5, 12)  (  1,  5, 12)  (  1,  5, 12)
  1  0.4018E+06  0  0.1240E+06  0   350.8      0  -3948.      0  -2844.    
   (  1,  4, 12)  (  1,  5, 13)  (  1,  5, 13)  (  1,  5, 14)  (  1,  5, 14)
  0   93.47      0   106.1      0   143.8      0   23.97      0  -2.216    
   (  1,  5, 13)  (  1,  5, 13)  (  1,  5, 13)  (  1,  5, 13)  (  1,  5, 13)
  0  -7.143      0  -2.032      0  -5.097      0  -2.298      0 -0.9652    
   (  1,  5, 13)  (  1,  5, 13)  (  1,  5, 13)  (  1,  5, 13)  (  1,  5, 13)
  0  0.2626      0  0.1675      0  0.5208E-01  0 -0.2640E-01  0 -0.2142E-02
   (  1,  5, 12)  (  1,  5, 12)  (  1,  5, 12)  (  1,  4, 13)  (  1,  4, 13)
  0 -0.1641E-02  0 -0.4205E-02  0 -0.3924E-02  0 -0.1737E-02  0 -0.3975E-03
   (  1,  4, 13)  (  1,  5, 12)  (  1,  5, 12)  (  1,  5, 12)  (  1,  5, 12)
  1  0.1204E+06  0  0.3685E+05  0   366.6      0  -1057.      0  -973.4    
   (  1,  4, 12)  (  1,  5, 13)  (  1,  5, 13)  (  1,  5, 14)  (  1,  5, 14)
  0   29.35      0   30.57      0   44.81      0   6.030      0 -0.6392    
   (  1,  5, 13)  (  1,  5, 13)  (  1,  5, 13)  (  1,  5, 13)  (  1,  5, 13)
  0  -1.925      0  -1.066      0 -0.9282      0  -1.004      0 -0.3592    
   (  1,  5, 13)  (  1,  5, 13)  (  1,  5, 13)  (  1,  5, 13)  (  1,  5, 13)
  0  0.6917E-01  0  0.4436E-01  0  0.1331E-01  0 -0.6958E-02  0 -0.1383E-02
   (  1,  5, 12)  (  1,  5, 12)  (  1,  5, 12)  (  1,  4, 13)  (  1,  4, 13)
  0 -0.2258E-03  0 -0.9760E-03  0 -0.1157E-02  0 -0.5195E-03  0 -0.1010E-03
   (  1,  5, 12)  (  1,  5, 12)  (  1,  5, 12)  (  1,  5, 12)  (  1,  5, 12)
  1  0.3640E+05  0  0.1107E+05  0   188.4      0  -297.8      0  -322.6    
   (  1,  4, 12)  (  1,  5, 13)  (  1,  5, 13)  (  1,  5, 14)  (  1,  5, 14)
  0  -10.27      0   9.647      0   14.05      0   1.810      0 -0.2356    
   (  1,  5, 14)  (  1,  5, 13)  (  1,  5, 13)  (  1,  5, 13)  (  1,  5, 13)
  0 -0.5787      0 -0.1750      0 -0.4401      0 -0.2236      0 -0.9853E-01
   (  1,  5, 13)  (  1,  5, 13)  (  1,  5, 13)  (  1,  5, 13)  (  1,  5, 13)
  0  0.2121E-01  0  0.1359E-01  0  0.4012E-02  0 -0.1975E-02  0 -0.4889E-03
   (  1,  5, 12)  (  1,  5, 12)  (  1,  5, 12)  (  1,  4, 13)  (  1,  4, 13)
  0 -0.1890E-03  0 -0.1648E-03  0 -0.3472E-03  0 -0.1609E-03  0 -0.2820E-04
   (  1,  5, 12)  (  1,  5, 12)  (  1,  5, 12)  (  1,  5, 12)  (  1,  5, 12)
  1  0.1060E+05  0   3164.      0   57.90      0  -69.81      0  -98.91    
   (  1,  4, 12)  (  1,  5, 13)  (  1,  5, 13)  (  1,  5, 14)  (  1,  5, 14)
  0  -4.073      0   2.222      0   3.573      0  0.5460      0 -0.6866E-01
   (  1,  5, 14)  (  1,  5, 13)  (  1,  5, 13)  (  1,  5, 13)  (  1,  5, 13)
  0 -0.1665      0 -0.7641E-01  0 -0.9454E-01  0 -0.9660E-01  0 -0.3853E-01
   (  1,  5, 13)  (  1,  5, 13)  (  1,  5, 13)  (  1,  5, 13)  (  1,  5, 13)
  0  0.7408E-02  0  0.4467E-02  0  0.1337E-02  0 -0.6132E-03  0 -0.1129E-03
   (  1,  4, 13)  (  1,  4, 13)  (  1,  4, 13)  (  1,  5, 12)  (  1,  5, 12)
  0 -0.6427E-04  0 -0.1056E-03  0 -0.1075E-03  0 -0.4973E-04  0 -0.1041E-04
   (  1,  5, 12)  (  1,  4, 13)  (  1,  4, 13)  (  1,  4, 13)  (  1,  4, 13)
  1   3174.      0   1017.      0   11.82      0  -29.49      0  -35.05    
   (  1,  4, 12)  (  1,  5, 13)  (  1,  5, 13)  (  1,  5, 14)  (  1,  5, 14)
  0  -1.174      0   1.323      0   1.387      0  0.1460      0 -0.7694E-01
   (  1,  5, 14)  (  1,  5, 13)  (  1,  5, 13)  (  1,  5, 13)  (  1,  5, 12)
  0  0.8514E-01  0  0.4484E-01  0  0.1151E-01  0 -0.2455E-01  0  0.1674E-01
   (  1,  4, 13)  (  1,  4, 13)  (  1,  4, 13)  (  1,  5, 13)  (  1,  5, 12)
  0  0.1024E-01  0  0.3227E-02  0  0.7537E-03  0  0.1611E-03  0 -0.3230E-04
   (  1,  5, 12)  (  1,  5, 12)  (  1,  5, 12)  (  1,  5, 12)  (  1,  4, 13)
  0 -0.1297E-04  0 -0.1791E-04  0 -0.2563E-04  0 -0.9160E-05  1   1034.    
   (  1,  5, 12)  (  1,  5, 12)  (  1,  5, 12)  (  1,  5, 12)  (  1,  4, 12)
  0  -334.0      0   1.304      0  -11.91      0  -10.59      0 -0.4132    
   (  1,  4, 12)  (  1,  5, 12)  (  1,  5, 14)  (  1,  5, 14)  (  1,  5, 14)
  0  0.6050      0  0.3205      0 -0.2141E-01  0 -0.5312E-01  0 -0.3053E-01
   (  1,  4, 13)  (  1,  4, 13)  (  1,  5, 12)  (  1,  4, 13)  (  1,  4, 13)
  0 -0.1058E-01  0 -0.5497E-02  0 -0.1898E-02  0  0.4335E-03  0 -0.1220E-03
   (  1,  4, 13)  (  1,  4, 13)  (  1,  4, 13)  (  1,  5, 12)  (  1,  5, 13)
  0 -0.9260E-04  0  0.4557E-04  0  0.8786E-05  1   287.1      0  -96.58    
   (  1,  5, 13)  (  1,  4, 13)  (  1,  4, 13)  (  1,  4, 12)  (  1,  4, 12)
  0  0.4783      0  0.5233      0   2.067      0  0.2606      0 -0.2857    
   (  1,  5, 13)  (  1,  5, 13)  (  1,  5, 13)  (  1,  5, 13)  (  1,  4, 13)
  0 -0.1379      0 -0.2092E-01  0 -0.1451E-01  0 -0.1380E-01  0 -0.1112E-02
   (  1,  4, 13)  (  1,  4, 13)  (  1,  5, 12)  (  1,  5, 12)  (  1,  5, 13)
  0  0.1254E-02  0  0.1289E-02  0  0.1578E-02  0  0.1267E-02  0  0.1377E-03
   (  1,  4, 13)  (  1,  4, 13)  (  1,  5, 12)  (  1,  5, 12)  (  1,  5, 12)
  0  0.3634E-04  0  0.4921E-05  1   86.13      0  -28.95      0  0.7212E-01
   (  1,  5, 12)  (  1,  5, 12)  (  1,  4, 12)  (  1,  4, 12)  (  1,  5, 13)
  0  0.2262      0  0.6319      0  0.8355E-01  0 -0.8609E-01  0 -0.4171E-01
   (  1,  5, 13)  (  1,  5, 13)  (  1,  5, 13)  (  1,  4, 13)  (  1,  4, 13)
  0 -0.5904E-02  0 -0.4267E-02  0 -0.4115E-02  0 -0.3543E-03  0  0.4156E-03
   (  1,  4, 13)  (  1,  5, 12)  (  1,  5, 12)  (  1,  5, 13)  (  1,  4, 13)
  0  0.3784E-03  0  0.4126E-03  0  0.3656E-03  0  0.7915E-04  0  0.1261E-04
   (  1,  4, 13)  (  1,  5, 12)  (  1,  5, 12)  (  1,  5, 12)  (  1,  5, 12)
  0  0.1508E-05  1   25.84      0  -8.599      0 -0.9352E-01  0  0.5985E-01
   (  1,  5, 12)  (  1,  4, 12)  (  1,  4, 12)  (  1,  4, 12)  (  1,  5, 13)
  0  0.1899      0  0.3564E-01  0 -0.2035E-01  0 -0.1695E-01  0 -0.3188E-02
   (  1,  5, 13)  (  1,  5, 13)  (  1,  4, 13)  (  1,  4, 13)  (  1,  4, 13)
  0 -0.1175E-02  0 -0.1394E-02  0  0.1974E-03  0  0.5194E-04  0  0.1238E-03
   (  1,  5, 12)  (  1,  5, 12)  (  1,  4, 13)  (  1,  4, 13)  (  1,  4, 13)
  0  0.1336E-03  0  0.8882E-04  0  0.1335E-04  0  0.3734E-05  1   7.752    
   (  1,  5, 12)  (  1,  5, 12)  (  1,  5, 12)  (  1,  5, 12)  (  1,  4, 12)
  0  -2.528      0 -0.7953E-01  0  0.1774E-01  0  0.5581E-01  0  0.1207E-01
   (  1,  4, 12)  (  1,  4, 12)  (  1,  5, 13)  (  1,  5, 13)  (  1,  5, 13)
  0 -0.5056E-02  0 -0.6215E-02  0 -0.9828E-03  0  0.3632E-03  0 -0.3789E-03
   (  1,  4, 13)  (  1,  4, 13)  (  1,  4, 13)  (  1,  5, 14)  (  1,  5, 12)
  0 -0.5086E-04  0  0.6131E-04  0  0.3675E-04  0  0.3607E-04  0  0.2960E-04
   (  1,  5, 12)  (  1,  4, 13)  (  1,  4, 13)  (  1,  5, 12)  (  1,  5, 12)
  0  0.1147E-04  0  0.1318E-05  1   2.326      0 -0.7805      0  0.2729E-02
   (  1,  5, 12)  (  1,  5, 12)  (  1,  4, 12)  (  1,  4, 12)  (  1,  5, 13)
  0  0.5185E-02  0  0.1652E-01  0  0.3957E-02  0 -0.1497E-02  0 -0.1734E-02
   (  1,  5, 13)  (  1,  5, 13)  (  1,  5, 13)  (  1,  4, 13)  (  1,  4, 13)
  0 -0.5082E-03  0  0.9596E-04  0 -0.7464E-04  0 -0.5965E-04  0 -0.2858E-04
   (  1,  4, 13)  (  1,  5, 14)  (  1,  5, 12)  (  1,  5, 12)  (  1,  5, 13)
  0  0.1490E-04  0  0.1072E-04  0  0.1152E-04  0  0.4618E-05  1  0.6977    
   (  1,  4, 13)  (  1,  4, 13)  (  1,  5, 12)  (  1,  5, 12)  (  1,  4, 12)
  0 -0.2009      0 -0.3382E-01  0  0.1526E-02  0  0.5220E-02  0  0.1217E-02
   (  1,  4, 12)  (  1,  4, 12)  (  1,  5, 13)  (  1,  5, 13)  (  1,  5, 13)
  0 -0.3795E-03  0 -0.5792E-03  0 -0.2933E-03  0 -0.4813E-04  0 -0.2088E-04
   (  1,  4, 13)  (  1,  4, 13)  (  1,  4, 13)  (  1,  5, 13)  (  1,  5, 13)
  0 -0.3868E-04  0 -0.2507E-04  0  0.1289E-04  0  0.4769E-05  1  0.2095    
   (  1,  5, 13)  (  1,  5, 13)  (  1,  4, 13)  (  1,  4, 13)  (  1,  4, 12)
  0 -0.3280E-01  0 -0.3791E-01  0  0.6279E-03  0  0.1386E-02  0  0.3345E-03
   (  1,  4, 12)  (  1,  4, 12)  (  1,  5, 13)  (  1,  5, 13)  (  1,  5, 13)
  0 -0.1276E-03  0 -0.2205E-03  0 -0.9902E-04  0 -0.4458E-04  0 -0.1322E-04
   (  1,  4, 13)  (  1,  4, 13)  (  1,  4, 13)  (  1,  5, 13)  (  1,  5, 13)
  0 -0.2686E-04  0  0.9686E-05  1  0.6340E-01  0  0.3728E-02  0 -0.2066E-01
   (  1,  5, 13)  (  1,  4, 13)  (  1,  4, 12)  (  1,  5, 13)  (  1,  4, 12)
  0 -0.4975E-03  0 -0.7427E-03  0 -0.5029E-03  0 -0.8562E-04  0 -0.6879E-04
   (  1,  4, 12)  (  1,  5, 14)  (  1,  5, 14)  (  1,  5, 14)  (  1,  4, 13)
  0 -0.4659E-04  0 -0.1758E-04  0 -0.1008E-04  0  0.1256E-04  0  0.4704E-05
   (  1,  4, 13)  (  1,  4, 13)  (  1,  4, 13)  (  1,  5, 14)  (  1,  5, 14)
  1  0.2026E-01  0  0.2380E-02  0 -0.9515E-02  0 -0.1246E-02  0 -0.7083E-03
   (  1,  4, 12)  (  1,  5, 13)  (  1,  4, 12)  (  1,  4, 12)  (  1,  5, 14)
  0  0.6604E-03  0  0.1738E-03  0 -0.8037E-04  0 -0.2705E-04  0 -0.8015E-05
   (  1,  4, 12)  (  1,  4, 12)  (  1,  5, 13)  (  1,  4, 12)  (  1,  4, 12)
  1  0.6552E-02  0  0.2043E-02  0 -0.4245E-02  0 -0.1265E-02  0 -0.2805E-03
   (  1,  4, 12)  (  1,  4, 12)  (  1,  4, 12)  (  1,  4, 12)  (  1,  5, 14)
  0  0.5281E-03  0  0.1880E-03  0 -0.5726E-04  0 -0.4587E-04  0 -0.9749E-05
   (  1,  4, 12)  (  1,  4, 12)  (  1,  5, 13)  (  1,  4, 12)  (  1,  4, 12)
  1  0.2014E-02  0  0.7510E-03  0 -0.1382E-02  0 -0.4936E-03  0 -0.8952E-04
   (  1,  4, 12)  (  1,  4, 12)  (  1,  4, 12)  (  1,  4, 12)  (  1,  5, 13)
  0  0.1941E-03  0  0.8417E-04  0 -0.2128E-04  0 -0.1610E-04  0 -0.1040E-04
   (  1,  4, 12)  (  1,  4, 12)  (  1,  4, 12)  (  1,  4, 12)  (  1,  4, 12)
  0 -0.6434E-05  1  0.6269E-03  0  0.2209E-03  0 -0.4228E-03  0 -0.1546E-03
   (  1,  4, 12)  (  1,  4, 12)  (  1,  4, 12)  (  1,  4, 12)  (  1,  4, 12)
  0 -0.2738E-04  0  0.5915E-04  0  0.2806E-04  0 -0.5540E-05  1  0.1785E-03
   (  1,  5, 13)  (  1,  4, 12)  (  1,  4, 12)  (  1,  5, 13)  (  1,  4, 12)
  0  0.6377E-04  0 -0.1217E-03  0 -0.4475E-04  0 -0.8045E-05  1  0.7221E-04
   (  1,  4, 12)  (  1,  4, 12)  (  1,  4, 12)  (  1,  5, 13)  (  1,  4, 12)
  0  0.2637E-04  0 -0.3845E-04  0 -0.2257E-04  0 -0.3655E-05  1  0.3159E-04
   (  1,  4, 12)  (  1,  4, 12)  (  1,  4, 12)  (  1,  4, 12)  (  1,  4, 12)
  0  0.1193E-04  0 -0.1340E-04  0 -0.1188E-04  0 -0.2051E-05  1  0.1314E-04
   (  1,  4, 12)  (  1,  4, 12)  (  1,  4, 12)  (  1,  4, 12)  (  1,  4, 12)
  0  0.4962E-05  1 -0.4159E-05
   (  1,  4, 12)  (  1,  4, 12)

 MAXIMUM RESIDUAL FOR EACH ITERATION (1 INDICATES THE FIRST INNER ITERATION):

    RESIDUAL       RESIDUAL       RESIDUAL       RESIDUAL       RESIDUAL    
   LAYER,ROW,COL  LAYER,ROW,COL  LAYER,ROW,COL  LAYER,ROW,COL  LAYER,ROW,COL
 ---------------------------------------------------------------------------
  1  0.1051E+06  0 -0.1456E+06  0  0.4611E+05  0  0.1620E+05  0  0.1373E+05
   (  1, 38, 15)  (  1,  9,  4)  (  1, 34, 15)  (  1, 16, 15)  (  1, 16, 15)
  0   9077.      0   3383.      0   1670.      0   1216.      0   642.1    
   (  1, 34, 15)  (  1, 19, 15)  (  1, 16, 15)  (  1, 16, 15)  (  1, 16, 15)
  0   485.8      0   205.1      0  -90.69      0   56.06      0  -23.44    
   (  1, 16, 15)  (  1, 39, 13)  (  1, 10, 12)  (  1, 10, 12)  (  1, 38, 15)
  0  -14.39      0  -10.58      0  -5.642      0  -4.196      0  -1.325    
   (  1, 38, 15)  (  1, 38, 15)  (  1, 38, 15)  (  1, 38, 15)  (  1, 38, 15)
  0 -0.3186      0  0.1952      0  0.1603      0  0.1188      0  0.6078E-01
   (  1, 27, 20)  (  1, 39, 15)  (  1, 39, 15)  (  1, 39, 15)  (  1, 39, 15)
  1  0.3110E+05  0 -0.6372E+05  0  0.1393E+05  0   4755.      0   4084.    
   (  1, 38, 15)  (  1,  9,  4)  (  1, 37, 15)  (  1, 16, 15)  (  1, 16, 15)
  0   2489.      0   761.9      0   485.7      0   359.5      0  -180.8    
   (  1, 34, 15)  (  1, 19, 15)  (  1, 16, 15)  (  1, 16, 15)  (  1,  8,  5)
  0   95.33      0   46.75      0  -17.79      0  -8.019      0  -6.110    
   (  1, 16, 15)  (  1, 39, 13)  (  1, 10, 12)  (  1, 39, 15)  (  1, 39, 15)
  0  -3.977      0  -2.533      0  -1.537      0  -1.163      0 -0.3942    
   (  1, 39, 15)  (  1, 39, 15)  (  1, 39, 15)  (  1, 39, 15)  (  1, 38, 15)
  0  0.9390E-01  0  0.4119E-01  0  0.3902E-01  0  0.2747E-01  0  0.1135E-01
   (  1, 11, 11)  (  1, 39, 15)  (  1, 39, 15)  (  1, 39, 15)  (  1, 39, 15)
  1   9462.      0 -0.3661E+05  0   4261.      0   2789.      0   1246.    
   (  1, 37, 15)  (  1,  9,  4)  (  1, 37, 15)  (  1, 11, 12)  (  1, 34, 15)
  0   928.1      0   299.8      0   152.9      0   116.7      0   30.84    
   (  1, 34, 15)  (  1, 34, 15)  (  1, 19, 15)  (  1, 16, 15)  (  1, 10, 15)
  0  -22.58      0   20.30      0   4.757      0  -4.798      0  -1.965    
   (  1,  9, 13)  (  1, 10, 12)  (  1, 39, 13)  (  1, 10, 12)  (  1, 39, 15)
  0  -1.252      0 -0.9040      0 -0.4789      0 -0.1752      0  0.5296E-01
   (  1, 39, 15)  (  1, 39, 15)  (  1, 39, 15)  (  1, 39, 15)  (  1,  9, 13)
  0  0.3843E-01  0 -0.1789E-01  0  0.8332E-02  0  0.5962E-02  0  0.3327E-02
   (  1,  9, 13)  (  1,  9, 12)  (  1, 39, 15)  (  1, 39, 15)  (  1, 39, 15)
  1   2912.      0  -4495.      0   1301.      0   1348.      0   384.7    
   (  1, 37, 15)  (  1,  9,  4)  (  1, 37, 15)  (  1, 11, 12)  (  1, 16, 15)
  0   318.3      0   143.5      0   53.09      0   36.27      0   15.47    
   (  1, 34, 15)  (  1, 34, 15)  (  1, 19, 15)  (  1, 16, 15)  (  1, 16, 15)
  0  -11.27      0   10.79      0   3.765      0  -2.256      0 -0.6247    
   (  1,  9, 13)  (  1, 10, 12)  (  1, 10, 12)  (  1, 11, 12)  (  1, 39, 15)
  0 -0.3873      0 -0.2758      0 -0.1647      0 -0.8515E-01  0 -0.6610E-01
   (  1, 39, 15)  (  1, 39, 15)  (  1, 39, 15)  (  1, 39, 15)  (  1, 39, 15)
  0  0.1516E-01  0  0.8153E-02  0 -0.1757E-02  0  0.1556E-02  0  0.1026E-02
   (  1,  9, 13)  (  1, 11, 11)  (  1, 10, 12)  (  1, 39, 15)  (  1, 39, 15)
  1   901.2      0   2608.      0   400.3      0   509.8      0   120.2    
   (  1, 16, 15)  (  1,  9,  4)  (  1, 37, 15)  (  1, 11, 12)  (  1, 16, 15)
  0   101.7      0   54.21      0   17.27      0   11.17      0   7.116    
   (  1, 37, 15)  (  1, 37, 15)  (  1, 19, 15)  (  1, 34, 15)  (  1, 16, 15)
  0  -4.066      0  -4.586      0   1.692      0 -0.8611      0 -0.3277    
   (  1,  9, 13)  (  1,  9, 13)  (  1, 10, 12)  (  1, 11, 12)  (  1, 11, 12)
  0 -0.1519      0 -0.1019      0 -0.6438E-01  0 -0.3392E-01  0 -0.2898E-01
   (  1, 39, 15)  (  1, 39, 15)  (  1, 39, 15)  (  1, 39, 15)  (  1, 39, 15)
  0  0.5924E-02  0  0.3354E-02  0 -0.8246E-03  0  0.4134E-03  0  0.3014E-03
   (  1,  9, 13)  (  1, 11, 11)  (  1, 10, 12)  (  1, 39, 15)  (  1, 39, 15)
  1   280.7      0   1417.      0   122.3      0   171.6      0   39.17    
   (  1, 16, 15)  (  1,  9,  4)  (  1, 37, 15)  (  1, 10, 12)  (  1, 10, 12)
  0   31.74      0   20.23      0   5.842      0   3.443      0   2.434    
   (  1, 37, 15)  (  1, 37, 15)  (  1, 34, 15)  (  1, 34, 15)  (  1, 16, 15)
  0  -1.362      0  -1.583      0  0.7040      0 -0.2925      0 -0.1377    
   (  1,  9, 13)  (  1,  9, 13)  (  1, 10, 12)  (  1, 11, 12)  (  1, 11, 12)
  0 -0.4803E-01  0 -0.3262E-01  0 -0.2157E-01  0 -0.1099E-01  0 -0.9402E-02
   (  1, 39, 15)  (  1, 39, 15)  (  1, 39, 15)  (  1, 39, 15)  (  1, 39, 15)
  0 -0.2365E-02  0  0.1007E-02  0  0.3813E-03  0  0.1072E-03  0  0.8571E-04
   (  1, 39, 15)  (  1, 11, 11)  (  1,  9, 13)  (  1, 39, 15)  (  1, 39, 15)
  1   87.32      0   374.5      0   37.27      0   50.52      0   13.04    
   (  1, 16, 15)  (  1,  9,  4)  (  1, 37, 15)  (  1, 10, 12)  (  1, 10, 12)
  0   9.791      0   6.740      0   2.043      0   1.050      0  0.7527    
   (  1, 37, 15)  (  1, 37, 15)  (  1, 37, 15)  (  1, 34, 15)  (  1, 34, 15)
  0 -0.4560      0  0.4153      0  0.3036      0  0.1022      0 -0.5064E-01
   (  1,  9, 13)  (  1, 10, 12)  (  1, 10, 12)  (  1, 10, 13)  (  1, 11, 12)
  0  0.1593E-01  0 -0.1024E-01  0 -0.6899E-02  0 -0.3506E-02  0 -0.1508E-02
   (  1, 10, 13)  (  1, 39, 15)  (  1, 39, 15)  (  1, 39, 15)  (  1, 39, 15)
  0 -0.9016E-03  0 -0.3383E-03  0 -0.1208E-03  0 -0.3967E-04  0  0.2374E-04
   (  1, 39, 15)  (  1,  9, 12)  (  1, 10, 12)  (  1, 10, 12)  (  1, 39, 15)
  1   27.12      0   43.75      0   11.33      0   13.79      0   4.290    
   (  1, 16, 15)  (  1,  9,  4)  (  1, 37, 15)  (  1, 10, 12)  (  1, 10, 12)
  0   2.996      0   2.088      0  0.6689      0  0.3181      0  0.2251    
   (  1, 37, 15)  (  1, 37, 15)  (  1, 37, 15)  (  1, 34, 15)  (  1, 34, 15)
  0  0.1393      0 -0.1648      0  0.7141E-01  0  0.3311E-01  0 -0.1729E-01
   (  1, 16, 15)  (  1,  9, 13)  (  1, 10, 12)  (  1, 10, 13)  (  1, 11, 12)
  0  0.5540E-02  0 -0.3168E-02  0 -0.2152E-02  0 -0.1140E-02  0 -0.5649E-03
   (  1, 10, 13)  (  1, 39, 15)  (  1, 39, 15)  (  1, 39, 15)  (  1, 39, 15)
  0 -0.3415E-03  0 -0.1017E-03  0 -0.4332E-04  0 -0.1367E-04  0  0.6509E-05
   (  1, 39, 15)  (  1,  9, 12)  (  1, 10, 12)  (  1, 10, 12)  (  1, 29, 15)
  1   8.407      0  -13.52      0   3.440      0  -4.196      0   1.418    
   (  1, 16, 15)  (  1,  9,  4)  (  1, 37, 15)  (  1, 19, 13)  (  1, 10, 12)
  0  0.9147      0  0.6347      0  0.1903      0  0.9638E-01  0  0.6858E-01
   (  1, 37, 15)  (  1, 37, 15)  (  1, 37, 15)  (  1, 34, 15)  (  1, 37, 15)
  0 -0.4503E-01  0 -0.4692E-01  0  0.2668E-01  0  0.1157E-01  0 -0.5689E-02
   (  1,  9, 13)  (  1,  9, 13)  (  1, 10, 12)  (  1, 10, 13)  (  1, 11, 12)
  0  0.1944E-02  0 -0.9800E-03  0 -0.6664E-03  0 -0.3667E-03  0 -0.2751E-03
   (  1,  9, 13)  (  1, 39, 15)  (  1, 39, 15)  (  1, 39, 15)  (  1, 39, 15)
  0 -0.1230E-03  0 -0.3403E-04  0 -0.1322E-04  0 -0.4143E-05  0  0.2258E-05
   (  1, 39, 15)  (  1, 39, 15)  (  1,  9, 12)  (  1, 10, 12)  (  1, 29, 15)
  1   2.600      0  -10.86      0   1.050      0   1.275      0  0.4701    
   (  1, 16, 15)  (  1,  9,  4)  (  1, 37, 15)  (  1, 21, 11)  (  1, 10, 12)
  0  0.2810      0  0.1986      0  0.5350E-01  0  0.2845E-01  0  0.2132E-01
   (  1, 37, 15)  (  1, 37, 15)  (  1, 37, 15)  (  1, 37, 15)  (  1,  9, 14)
  0  0.1218E-01  0  0.1335E-01  0  0.1177E-01  0  0.3988E-02  0 -0.1854E-02
   (  1, 16, 15)  (  1, 10, 12)  (  1, 10, 12)  (  1, 10, 13)  (  1, 10, 12)
  0  0.7012E-03  0 -0.3043E-03  0 -0.2063E-03  0 -0.1146E-03  0 -0.5079E-04
   (  1,  9, 13)  (  1, 39, 15)  (  1, 39, 15)  (  1, 39, 15)  (  1, 39, 15)
  0 -0.3593E-04  0 -0.1059E-04  0 -0.4441E-05  0  0.1117E-05  0  0.7387E-06
   (  1, 39, 15)  (  1, 39, 15)  (  1,  9, 12)  (  1, 10, 13)  (  1, 29, 15)
  1  0.8035      0  -4.399      0  0.3193      0  0.3970      0  0.1549    
   (  1, 16, 15)  (  1,  9,  4)  (  1, 37, 15)  (  1, 21, 11)  (  1, 10, 12)
  0  0.8593E-01  0  0.6059E-01  0  0.1625E-01  0  0.8802E-02  0  0.6499E-02
   (  1, 37, 15)  (  1, 37, 15)  (  1, 37, 15)  (  1, 37, 15)  (  1,  9, 14)
  0 -0.4402E-02  0  0.4993E-02  0 -0.2356E-02  0  0.1246E-02  0 -0.5986E-03
   (  1,  9, 13)  (  1, 10, 12)  (  1,  9, 14)  (  1, 10, 13)  (  1, 10, 12)
  0  0.2437E-03  0 -0.9352E-04  0 -0.6290E-04  0 -0.3597E-04  0 -0.1546E-04
   (  1,  9, 13)  (  1, 39, 15)  (  1, 39, 15)  (  1, 39, 15)  (  1, 39, 15)
  0 -0.7726E-05  0 -0.3447E-05  0 -0.1367E-05  0  0.3612E-06  0  0.2350E-06
   (  1, 39, 15)  (  1, 39, 15)  (  1,  9, 12)  (  1, 29, 15)  (  1, 29, 15)
  1  0.2479      0  -1.328      0  0.9712E-01  0  0.1047      0  0.4941E-01
   (  1, 16, 15)  (  1,  9,  4)  (  1, 37, 15)  (  1, 21, 11)  (  1, 10, 12)
  0  0.2660E-01  0  0.1916E-01  0  0.5039E-02  0  0.2226E-02  0  0.2138E-02
   (  1, 37, 15)  (  1, 37, 15)  (  1, 11, 12)  (  1, 37, 15)  (  1,  9, 14)
  0 -0.1191E-02  0  0.1178E-02  0  0.1021E-02  0 -0.4102E-03  0 -0.1797E-03
   (  1,  9, 13)  (  1, 10, 12)  (  1, 10, 12)  (  1, 11, 12)  (  1, 10, 12)
  0  0.8156E-04  0 -0.2856E-04  0 -0.1894E-04  0 -0.1110E-04  0 -0.7358E-05
   (  1,  9, 13)  (  1, 39, 15)  (  1, 39, 15)  (  1, 39, 15)  (  1, 39, 15)
  0 -0.4083E-05  0 -0.1131E-05  0 -0.4145E-06  0  0.1208E-06  0  0.8141E-07
   (  1, 39, 15)  (  1, 39, 15)  (  1,  9, 12)  (  1, 29, 15)  (  1, 29, 15)
  1  0.7573E-01  0 -0.3198      0  0.2987E-01  0  0.4054E-01  0  0.1587E-01
   (  1, 16, 15)  (  1,  9,  4)  (  1, 21, 15)  (  1, 21, 11)  (  1, 10, 12)
  0  0.7866E-02  0  0.5021E-02  0  0.1569E-02  0  0.9947E-03  0  0.7025E-03
   (  1, 37, 15)  (  1, 37, 15)  (  1, 11, 12)  (  1, 37, 15)  (  1, 37, 15)
  0  0.4116E-03  0  0.4609E-03  0  0.3741E-03  0 -0.1472E-03  0 -0.6631E-04
   (  1, 16, 15)  (  1, 10, 12)  (  1, 10, 12)  (  1, 11, 12)  (  1, 10, 12)
  0  0.2155E-04  0 -0.1385E-04  0 -0.5212E-05  0 -0.3579E-05  0 -0.2033E-05
   (  1,  9, 13)  (  1, 10, 13)  (  1, 39, 15)  (  1, 39, 15)  (  1, 39, 15)
  0 -0.1302E-05  0 -0.5836E-06  0 -0.1977E-06  0 -0.4565E-07  1  0.2308E-01
   (  1, 39, 15)  (  1, 39, 15)  (  1, 10, 12)  (  1, 10, 12)  (  1, 16, 15)
  0 -0.5364E-01  0  0.9208E-02  0  0.1554E-01  0  0.4624E-02  0  0.2602E-02
   (  1,  9,  4)  (  1, 21, 15)  (  1, 20, 11)  (  1, 10, 12)  (  1, 37, 15)
  0  0.1634E-02  0  0.8908E-03  0  0.6647E-03  0 -0.2835E-03  0  0.1334E-03
   (  1, 37, 15)  (  1, 37, 15)  (  1, 37, 15)  (  1, 11, 12)  (  1,  8,  5)
  0 -0.1520E-03  0  0.9485E-04  0 -0.1835E-04  0 -0.1368E-04  0 -0.7891E-05
   (  1,  9, 13)  (  1, 10, 12)  (  1, 39, 15)  (  1, 39, 15)  (  1, 39, 15)
  0 -0.4357E-05  0  0.1013E-05  0 -0.3529E-06  1  0.6936E-02  0  0.3485E-02
   (  1, 10, 13)  (  1, 10, 12)  (  1, 39, 15)  (  1, 16, 15)  (  1, 19, 14)
  0 -0.2941E-02  0  0.2257E-02  0  0.1366E-02  0  0.6985E-03  0 -0.6230E-03
   (  1,  9,  4)  (  1, 37, 15)  (  1, 10, 12)  (  1, 37, 15)  (  1, 10, 12)
  0  0.1991E-03  0  0.1513E-03  0  0.8721E-04  0 -0.5334E-04  0  0.3741E-04
   (  1, 37, 15)  (  1, 37, 15)  (  1, 37, 15)  (  1,  9, 13)  (  1, 10, 12)
  0  0.1739E-04  0 -0.7928E-05  0 -0.6959E-05  0  0.2609E-05  0 -0.1490E-05
   (  1, 10, 12)  (  1, 11, 12)  (  1, 10, 12)  (  1, 11, 12)  (  1, 10, 13)
  0 -0.4709E-06  0 -0.3189E-06  1  0.2097E-02  0 -0.2158E-02  0  0.9103E-03
   (  1, 39, 15)  (  1, 39, 15)  (  1, 16, 15)  (  1,  8,  5)  (  1, 21, 15)
  0  0.6881E-03  0  0.3545E-03  0  0.2098E-03  0 -0.1545E-03  0  0.5847E-04
   (  1, 37, 15)  (  1, 20, 12)  (  1, 37, 15)  (  1, 10, 12)  (  1, 37, 15)
  0  0.4492E-04  0  0.2608E-04  0 -0.1520E-04  0  0.1039E-04  0  0.4840E-05
   (  1, 37, 15)  (  1, 37, 15)  (  1,  9, 13)  (  1, 10, 12)  (  1, 10, 12)
  0 -0.2252E-05  0 -0.2578E-05  0  0.1228E-05  0 -0.4591E-06  0 -0.1440E-06
   (  1, 10, 12)  (  1, 10, 12)  (  1, 11, 12)  (  1, 10, 13)  (  1, 39, 15)
  0 -0.9831E-07  1  0.7536E-03  0  0.2721E-02  0  0.2974E-03  0  0.2349E-03
   (  1, 39, 15)  (  1, 16, 15)  (  1,  9,  4)  (  1, 19, 14)  (  1, 16, 15)
  0  0.1363E-03  0  0.6853E-04  0 -0.4179E-04  0 -0.2234E-04  0  0.1392E-04
   (  1, 20, 12)  (  1, 16, 15)  (  1, 10, 12)  (  1, 10, 12)  (  1, 37, 15)
  0  0.8795E-05  0 -0.4542E-05  0  0.2636E-05  0  0.1986E-05  0 -0.1275E-05
   (  1, 16, 15)  (  1,  9, 13)  (  1, 10, 12)  (  1, 10, 12)  (  1, 10, 12)
  0  0.5138E-06  0  0.2458E-06  0 -0.1410E-06  0 -0.4672E-07  1  0.2292E-03
   (  1,  9, 13)  (  1, 11, 12)  (  1, 10, 13)  (  1, 39, 15)  (  1, 30, 15)
  0  0.1379E-02  0  0.9331E-04  0  0.8341E-04  0  0.4427E-04  0  0.2345E-04
   (  1,  9,  4)  (  1, 30, 15)  (  1, 30, 15)  (  1, 20, 12)  (  1, 30, 15)
  0  0.1625E-04  0  0.7301E-05  0  0.5105E-05  0  0.2958E-05  0  0.1069E-05
   (  1, 30, 15)  (  1, 30, 15)  (  1, 30, 15)  (  1, 30, 15)  (  1, 30, 15)
  0  0.7820E-06  0  0.5469E-06  0  0.1629E-06  0 -0.2448E-06  0  0.1291E-06
   (  1, 16, 15)  (  1, 10, 12)  (  1, 16, 15)  (  1, 10, 12)  (  1, 11, 12)
  0 -0.3857E-07  0 -0.1302E-07  1 -0.8546E-04  0  0.1045E-03  0 -0.3184E-04
   (  1, 10, 13)  (  1, 39, 15)  (  1, 10,  4)  (  1,  8,  5)  (  1, 10,  4)
  0 -0.2703E-04  0  0.1273E-04  0  0.6934E-05  0 -0.4546E-05  0 -0.2165E-05
   (  1, 10,  4)  (  1, 20, 12)  (  1, 11,  4)  (  1, 10,  4)  (  1, 10, 12)
  0  0.1335E-05  0  0.9100E-06  0  0.5076E-06  0  0.2667E-06  0  0.1897E-06
   (  1, 11,  4)  (  1, 11,  4)  (  1, 11,  4)  (  1, 16, 15)  (  1, 10, 12)
  0  0.5710E-07  0 -0.5826E-07  0  0.4147E-07  0 -0.1463E-07  1  0.8252E-04
   (  1, 16, 15)  (  1, 10, 12)  (  1, 11, 12)  (  1, 10, 13)  (  1, 10,  4)
  0 -0.2518E-03  0  0.3080E-04  0  0.2663E-04  0 -0.1041E-04  0  0.5586E-05
   (  1,  8,  5)  (  1, 10,  4)  (  1, 10,  4)  (  1, 11,  4)  (  1, 10,  4)
  0  0.3720E-05  0  0.1710E-05  0  0.9596E-06  0  0.4909E-06  0 -0.3699E-06
   (  1, 10,  4)  (  1, 11,  3)  (  1, 11,  3)  (  1, 11,  3)  (  1, 11,  4)
  0 -0.1523E-06  0 -0.7394E-07  0  0.3018E-07  0  0.2179E-07  1 -0.8334E-04
   (  1, 12,  3)  (  1, 12,  3)  (  1, 12,  2)  (  1, 12,  2)  (  1, 10,  4)
  0  0.1043E-03  0 -0.3104E-04  0 -0.2490E-04  0  0.8340E-05  0 -0.2616E-05
   (  1,  8,  5)  (  1, 10,  4)  (  1, 10,  4)  (  1, 11,  4)  (  1, 10,  4)
  0  0.1455E-05  0 -0.9893E-06  0 -0.6670E-06  0 -0.3627E-06  0 -0.2731E-06
   (  1, 12,  3)  (  1, 11,  3)  (  1, 11,  3)  (  1, 11,  3)  (  1, 11,  3)
  0 -0.9622E-07  0 -0.5300E-07  1  0.8259E-04  0  0.7530E-04  0  0.2882E-04
   (  1,  9, 13)  (  1, 12,  2)  (  1, 10,  4)  (  1, 10,  4)  (  1, 10,  4)
  0  0.2289E-04  0 -0.9850E-05  0 -0.2336E-05  0 -0.1557E-05  0 -0.8582E-06
   (  1, 10,  4)  (  1, 11,  4)  (  1, 12,  3)  (  1, 12,  3)  (  1, 12,  3)
  0  0.6122E-06  0  0.4150E-06  0  0.2733E-06  0  0.9479E-07  0 -0.5566E-07
   (  1, 11,  3)  (  1, 11,  3)  (  1, 11,  3)  (  1, 12,  2)  (  1, 13,  2)
  1 -0.7884E-04  0 -0.6657E-04  0  0.2196E-04  0  0.1446E-04  0  0.6583E-05
   (  1, 10,  4)  (  1, 10,  4)  (  1, 11,  4)  (  1, 11,  4)  (  1, 11,  4)
  0  0.2397E-05  0  0.1539E-05  0  0.7849E-06  0 -0.5294E-06  0 -0.4330E-06
   (  1, 12,  3)  (  1, 12,  3)  (  1, 12,  3)  (  1, 11,  3)  (  1, 11,  3)
  1  0.7401E-04  0 -0.5256E-04  0 -0.1861E-04  0  0.1326E-04  0  0.6531E-05
   (  1, 10,  4)  (  1, 11,  4)  (  1, 11,  4)  (  1, 11,  3)  (  1, 11,  3)
  0  0.2530E-05  0 -0.1395E-05  0 -0.6423E-06  0  0.4213E-06  0  0.3310E-06
   (  1, 11,  3)  (  1, 12,  3)  (  1, 12,  3)  (  1, 12,  2)  (  1, 12,  2)
  1 -0.7279E-04  0  0.4970E-04  0 -0.1896E-04  0 -0.1305E-04  0 -0.6335E-05
   (  1, 10,  4)  (  1, 11,  4)  (  1, 11,  3)  (  1, 11,  3)  (  1, 11,  3)
  0 -0.2701E-05  0  0.1323E-05  0 -0.7019E-06  0 -0.5218E-06  0 -0.3878E-06
   (  1, 11,  3)  (  1, 12,  3)  (  1, 12,  2)  (  1, 12,  2)  (  1, 12,  2)
  0 -0.1903E-06  1  0.7132E-04  0 -0.4936E-04  0  0.1903E-04  0  0.1307E-04
   (  1, 12,  2)  (  1, 10,  4)  (  1, 11,  4)  (  1, 11,  3)  (  1, 11,  3)
  0  0.6358E-05  0  0.2781E-05  0 -0.1348E-05  0  0.7395E-06  1 -0.7156E-04
   (  1, 11,  3)  (  1, 11,  3)  (  1, 12,  3)  (  1, 12,  2)  (  1, 10,  4)
  0  0.4927E-04  0 -0.1896E-04  0 -0.1306E-04  0 -0.6568E-05  1  0.7130E-04
   (  1, 11,  4)  (  1, 11,  3)  (  1, 11,  3)  (  1, 11,  3)  (  1, 10,  4)
  0 -0.4820E-04  0 -0.2099E-04  0  0.1364E-04  0  0.7495E-05  1 -0.7175E-04
   (  1, 11,  4)  (  1, 11,  4)  (  1, 11,  3)  (  1, 11,  3)  (  1, 10,  4)
  0  0.4813E-04  0  0.2422E-04  0 -0.1435E-04  0 -0.7977E-05  1  0.7156E-04
   (  1, 11,  4)  (  1, 11,  4)  (  1, 11,  3)  (  1, 11,  3)  (  1, 10,  4)
  0 -0.4802E-04  1 -0.6290E-04
   (  1, 11,  4)  (  1, 10,  4)



 OUTPUT CONTROL FOR STRESS PERIOD    1   TIME STEP    1
    SAVE HEAD FOR ALL LAYERS
    SAVE BUDGET
 UBDSV2 SAVING "   CONSTANT HEAD" ON UNIT  53 AT TIME STEP  1, STRESS PERIOD   1
 UBDSV1 SAVING "FLOW RIGHT FACE " ON UNIT  53 AT TIME STEP  1, STRESS PERIOD   1
 UBDSV1 SAVING "FLOW FRONT FACE " ON UNIT  53 AT TIME STEP  1, STRESS PERIOD   1

 HEAD WILL BE SAVED ON UNIT   51 AT END OF TIME STEP    1, STRESS PERIOD    1
1
  VOLUMETRIC BUDGET FOR ENTIRE MODEL AT END OF TIME STEP    1, STRESS PERIOD   1
  ------------------------------------------------------------------------------

     CUMULATIVE VOLUMES      L**3       RATES FOR THIS TIME STEP      L**3/T
     ------------------                 ------------------------

           IN:                                      IN:
           ---                                      ---
             STORAGE =           0.0000               STORAGE =           0.0000
       CONSTANT HEAD =           0.0000         CONSTANT HEAD =           0.0000
               WELLS =           0.0000                 WELLS =           0.0000
       RIVER LEAKAGE =         482.8248         RIVER LEAKAGE =         482.8248
            RECHARGE =       54345.1758              RECHARGE =       54345.1758

            TOTAL IN =       54828.0000              TOTAL IN =       54828.0000

          OUT:                                     OUT:
          ----                                     ----
             STORAGE =           0.0000               STORAGE =           0.0000
       CONSTANT HEAD =        4765.9707         CONSTANT HEAD =        4765.9707
               WELLS =        1874.3583                 WELLS =        1874.3583
       RIVER LEAKAGE =       48187.7031         RIVER LEAKAGE =       48187.7031
            RECHARGE =           0.0000              RECHARGE =           0.0000

           TOTAL OUT =       54828.0312             TOTAL OUT =       54828.0312

            IN - OUT =      -3.1250E-02              IN - OUT =      -3.1250E-02

 PERCENT DISCREPANCY =          -0.00     PERCENT DISCREPANCY =          -0.00






         TIME SUMMARY AT END OF TIME STEP    1 IN STRESS PERIOD    1
                    SECONDS     MINUTES      HOURS       DAYS        YEARS
                    -----------------------------------------------------------
   TIME STEP LENGTH  86400.      1440.0      24.000      1.0000     2.73785E-03
 STRESS PERIOD TIME  86400.      1440.0      24.000      1.0000     2.73785E-03
         TOTAL TIME  86400.      1440.0      24.000      1.0000     2.73785E-03
1
 A TOTAL OF  17 HYDROGRAPH POINTS HAVE BEEN PREPARED.
1
                            STRESS PERIOD NO.    2, LENGTH =   1825.000    
                            -----------------------------------------------

                              NUMBER OF TIME STEPS =     1

                               MULTIPLIER FOR DELT =     1.000

                            INITIAL TIME STEP SIZE =   1825.000    

 WELL NO.  LAYER   ROW   COL   STRESS RATE         
 --------------------------------------------------
      1      1      9     16      -841.8    
      2      1     11     13      -456.2    
      3      1     20     14      -363.5    
      4      1     26     10      -96.74    
      5      1     29      6      -66.48    
      6      1     34     12      -493.4    

      6 WELLS

 REACH NO.  LAYER   ROW   COL     STAGE      CONDUCTANCE     BOTTOM EL.         
 -------------------------------------------------------------------------------
      1      1      1     15       20.29           6513.           20.00    
      2      1      2     15       19.81           4438.           19.75    
      3      1      3     15       20.10           6156.           19.50    
      4      1      4     15       19.37           5410.           19.25    
      5      1      5     15       19.21           6028.           19.00    
      6      1      6     15       18.97           5313.           18.75    
      7      1      7     15       18.81           3846.           18.50    
      8      1      8     15       18.43           5831.           18.25    
      9      1      9     15       18.58           4497.           18.00    
     10      1     10     15       19.07           4282.           17.75    
     11      1     11     15       17.64           5710.           17.50    
     12      1     12     15       17.46           3483.           17.25    
     13      1     13     15       17.53           4368.           17.00    
     14      1     14     15       17.35           4593.           16.75    
     15      1     15     15       16.87           5063.           16.50    
     16      1     16     15       16.89           2612.           16.25    
     17      1     17     15       16.31           4018.           16.00    
     18      1     18     15       16.11           5095.           15.75    
     19      1     19     15       16.09           5867.           15.50    
     20      1     20     15       15.61           2969.           15.25    
     21      1     21     15       15.30           2970.           15.00    
     22      1     22     15       15.28           4680.           14.75    
     23      1     23     15       15.05           4085.           14.50    
     24      1     24     15       15.21           4238.           14.25    
     25      1     25     15       14.74           5667.           14.00    
     26      1     26     15       14.44           4505.           13.75    
     27      1     27     15       14.35           4536.           13.50    
     28      1     28     15       13.63           4374.           13.25    
     29      1     29     15       13.78           5304.           13.00    
     30      1     30     15       13.71           4737.           12.75    
     31      1     31     15       13.39           4671.           12.50    
     32      1     32     15       12.99           4225.           12.25    
     33      1     33     15       12.89           3323.           12.00    
     34      1     34     15       12.53           3788.           11.75    
     35      1     35     15       12.32           3981.           11.50    
     36      1     36     15       12.11           6059.           11.25    
     37      1     37     15       11.89           5024.           11.00    
     38      1     38     15       11.64           4588.           10.75    
     39      1     39     15       11.37           3807.           10.50    
     40      1     40     15       11.57           3644.           10.25    

     40 RIVER REACHES

                 RECHARGE =  9.358508E-05

 SOLVING FOR HEAD 


    16 CALLS TO PCG ROUTINE FOR TIME STEP   1 IN STRESS PERIOD    2
   150 TOTAL ITERATIONS

 MAXIMUM HEAD CHANGE FOR EACH ITERATION (1 INDICATES THE FIRST INNER ITERATION):

    HEAD CHANGE    HEAD CHANGE    HEAD CHANGE    HEAD CHANGE    HEAD CHANGE 
   LAYER,ROW,COL  LAYER,ROW,COL  LAYER,ROW,COL  LAYER,ROW,COL  LAYER,ROW,COL
 ---------------------------------------------------------------------------
  1  -682.4      0  -68.61      0  -30.07      0  -7.330      0  -3.619    
   (  1,  4, 12)  (  1,  4, 12)  (  1,  4, 12)  (  1,  4, 12)  (  1,  4, 12)
  0 -0.9443      0 -0.4138      0 -0.1341      0 -0.4738E-01  0 -0.1842E-01
   (  1,  4, 12)  (  1,  4, 12)  (  1,  4, 12)  (  1,  4, 12)  (  1,  4, 12)
  0 -0.6833E-02  0 -0.2504E-02  0 -0.9482E-03  0 -0.4671E-03  0 -0.1763E-03
   (  1,  4, 12)  (  1,  4, 12)  (  1,  4, 12)  (  1,  4, 12)  (  1,  4, 12)
  0 -0.7803E-04  0 -0.3568E-04  0 -0.1720E-04  0 -0.5923E-05  1  -205.1    
   (  1,  4, 12)  (  1,  4, 12)  (  1,  4, 12)  (  1,  4, 12)  (  1,  4, 12)
  0  -21.33      0  -8.454      0  -2.051      0 -0.7676      0 -0.1934    
   (  1,  4, 12)  (  1,  4, 12)  (  1,  4, 12)  (  1,  4, 12)  (  1,  4, 12)
  0 -0.8813E-01  0 -0.2565E-01  0 -0.1089E-01  0 -0.3561E-02  0 -0.1634E-02
   (  1,  4, 12)  (  1,  4, 12)  (  1,  4, 12)  (  1,  4, 12)  (  1,  4, 12)
  0 -0.5551E-03  0 -0.2736E-03  0 -0.8899E-04  0 -0.4994E-04  0 -0.1962E-04
   (  1,  4, 12)  (  1,  4, 12)  (  1,  4, 12)  (  1,  4, 12)  (  1,  4, 12)
  0 -0.1056E-04  0 -0.3110E-05  1  -59.20      0  -8.430      0  -2.863    
   (  1,  4, 12)  (  1,  4, 12)  (  1,  4, 12)  (  1,  4, 12)  (  1,  4, 12)
  0 -0.6427      0 -0.2078      0 -0.4739E-01  0 -0.2460E-01  0 -0.7519E-02
   (  1,  4, 12)  (  1,  4, 12)  (  1,  4, 12)  (  1,  4, 12)  (  1,  4, 12)
  0 -0.2717E-02  0 -0.1078E-02  0 -0.4963E-03  0 -0.1440E-03  0 -0.8233E-04
   (  1,  4, 12)  (  1,  4, 12)  (  1,  4, 12)  (  1,  4, 12)  (  1,  4, 12)
  0 -0.2908E-04  0 -0.1389E-04  0 -0.5355E-05  1  -17.23      0  -2.994    
   (  1,  4, 12)  (  1,  4, 12)  (  1,  4, 12)  (  1,  4, 12)  (  1,  4, 12)
  0 -0.9144      0 -0.2082      0 -0.5938E-01  0 -0.1388E-01  0 -0.6657E-02
   (  1,  4, 12)  (  1,  4, 12)  (  1,  4, 12)  (  1,  4, 12)  (  1,  4, 12)
  0 -0.2159E-02  0 -0.7470E-03  0 -0.3331E-03  0 -0.1524E-03  0 -0.4365E-04
   (  1,  4, 12)  (  1,  4, 12)  (  1,  4, 12)  (  1,  4, 12)  (  1,  4, 12)
  0 -0.2685E-04  0 -0.9186E-05  1  -5.080      0 -0.9798      0 -0.2768    
   (  1,  4, 12)  (  1,  4, 12)  (  1,  4, 12)  (  1,  4, 12)  (  1,  4, 12)
  0 -0.6677E-01  0 -0.1719E-01  0 -0.4495E-02  0 -0.1930E-02  0 -0.6747E-03
   (  1,  4, 12)  (  1,  4, 12)  (  1,  4, 12)  (  1,  4, 12)  (  1,  4, 12)
  0 -0.2346E-03  0 -0.1096E-03  0 -0.4566E-04  0 -0.1625E-04  0 -0.8436E-05
   (  1,  4, 12)  (  1,  4, 12)  (  1,  4, 12)  (  1,  4, 12)  (  1,  4, 12)
  1  -1.505      0 -0.3133      0 -0.8100E-01  0 -0.2116E-01  0 -0.5178E-02
   (  1,  4, 12)  (  1,  4, 12)  (  1,  4, 12)  (  1,  4, 12)  (  1,  4, 12)
  0 -0.1608E-02  0 -0.5801E-03  0 -0.2438E-03  0 -0.9594E-04  0 -0.4047E-04
   (  1,  4, 12)  (  1,  4, 12)  (  1,  4, 12)  (  1,  4, 12)  (  1,  4, 12)
  0 -0.1423E-04  0 -0.6650E-05  1 -0.4466      0 -0.9957E-01  0 -0.2321E-01
   (  1,  4, 12)  (  1,  4, 12)  (  1,  4, 12)  (  1,  4, 12)  (  1,  4, 12)
  0 -0.6680E-02  0 -0.1624E-02  0 -0.5494E-03  0 -0.1844E-03  0 -0.9055E-04
   (  1,  4, 12)  (  1,  4, 12)  (  1,  4, 12)  (  1,  4, 12)  (  1,  4, 12)
  0 -0.3402E-04  0 -0.1310E-04  0 -0.4592E-05  1 -0.1332      0 -0.3095E-01
   (  1,  4, 12)  (  1,  4, 12)  (  1,  4, 12)  (  1,  4, 12)  (  1,  4, 12)
  0 -0.6562E-02  0 -0.2081E-02  0 -0.5037E-03  0 -0.1732E-03  0 -0.6093E-04
   (  1,  4, 12)  (  1,  4, 12)  (  1,  4, 12)  (  1,  4, 12)  (  1,  4, 12)
  0 -0.3107E-04  0 -0.1142E-04  0 -0.4068E-05  1 -0.4008E-01  0 -0.9241E-02
   (  1,  4, 12)  (  1,  4, 12)  (  1,  4, 12)  (  1,  4, 12)  (  1,  4, 12)
  0 -0.1865E-02  0 -0.6276E-03  0 -0.1490E-03  0 -0.5114E-04  0 -0.2030E-04
   (  1,  4, 12)  (  1,  4, 12)  (  1,  4, 12)  (  1,  4, 12)  (  1,  4, 12)
  0 -0.9781E-05  1 -0.1216E-01  0 -0.2679E-02  0 -0.5458E-03  0 -0.1819E-03
   (  1,  4, 12)  (  1,  4, 12)  (  1,  4, 12)  (  1,  4, 12)  (  1,  4, 12)
  0 -0.4222E-04  0 -0.1437E-04  0 -0.6684E-05  1 -0.3681E-02  0 -0.7792E-03
   (  1,  4, 12)  (  1,  4, 12)  (  1,  4, 12)  (  1,  4, 12)  (  1,  4, 12)
  0 -0.1637E-03  0 -0.5196E-04  0 -0.1127E-04  0 -0.3672E-05  1 -0.1091E-02
   (  1,  4, 12)  (  1,  4, 12)  (  1,  4, 12)  (  1,  4, 12)  (  1,  4, 12)
  0 -0.2475E-03  0 -0.5039E-04  0 -0.1537E-04  0 -0.3425E-05  1 -0.3077E-03
   (  1,  4, 12)  (  1,  4, 12)  (  1,  4, 12)  (  1,  4, 12)  (  1,  4, 12)
  0 -0.9390E-04  0 -0.1652E-04  0 -0.4312E-05  1 -0.9295E-04  0 -0.2968E-04
   (  1,  4, 12)  (  1,  4, 12)  (  1,  4, 12)  (  1,  4, 12)  (  1,  4, 12)
  0 -0.4897E-05  1 -0.2550E-04  0 -0.1158E-04  0 -0.1657E-05  1 -0.7817E-05
   (  1,  4, 12)  (  1,  4, 12)  (  1,  4, 12)  (  1,  4, 12)  (  1,  4, 12)

 MAXIMUM RESIDUAL FOR EACH ITERATION (1 INDICATES THE FIRST INNER ITERATION):

    RESIDUAL       RESIDUAL       RESIDUAL       RESIDUAL       RESIDUAL    
   LAYER,ROW,COL  LAYER,ROW,COL  LAYER,ROW,COL  LAYER,ROW,COL  LAYER,ROW,COL
 ---------------------------------------------------------------------------
  1  -1399.      0   818.5      0   311.1      0   353.0      0  -72.44    
   (  1,  9,  4)  (  1,  8, 15)  (  1, 16, 15)  (  1,  9, 13)  (  1, 10, 13)
  0   43.48      0  -20.65      0   10.20      0   5.651      0  -1.825    
   (  1,  9, 14)  (  1,  9, 13)  (  1, 10, 13)  (  1, 10, 13)  (  1, 10, 12)
  0  0.9310      0  0.2550      0  0.1642      0 -0.5283E-01  0  0.3209E-01
   (  1, 11, 12)  (  1, 11, 12)  (  1, 10, 12)  (  1,  9, 12)  (  1,  9, 13)
  0 -0.1914E-01  0  0.6784E-02  0  0.2429E-02  0  0.6744E-03  1  -476.2    
   (  1, 10, 12)  (  1, 11, 13)  (  1,  9, 12)  (  1, 12, 12)  (  1, 10, 12)
  0  -299.3      0   100.1      0   43.00      0   21.62      0  -12.60    
   (  1,  9, 14)  (  1, 16, 15)  (  1,  9, 13)  (  1,  9, 14)  (  1,  9, 13)
  0   4.067      0   2.404      0   1.485      0 -0.5209      0  0.1926    
   (  1, 10, 12)  (  1, 10, 13)  (  1, 10, 13)  (  1, 10, 12)  (  1, 11, 12)
  0  0.1199      0 -0.3635E-01  0  0.1576E-01  0 -0.1031E-01  0  0.3502E-02
   (  1, 11, 12)  (  1, 11, 11)  (  1, 10, 11)  (  1, 10, 12)  (  1, 11, 13)
  0  0.1699E-02  0  0.6343E-03  1  -161.0      0  -95.76      0   32.24    
   (  1,  9, 12)  (  1,  9, 12)  (  1, 10, 12)  (  1,  9, 14)  (  1, 16, 15)
  0  -12.33      0   8.025      0  -4.556      0   1.564      0  0.8073    
   (  1,  8, 14)  (  1,  9, 14)  (  1,  9, 13)  (  1, 10, 12)  (  1, 10, 13)
  0  0.4932      0 -0.1599      0 -0.4066E-01  0  0.4351E-01  0 -0.1188E-01
   (  1, 10, 13)  (  1, 10, 12)  (  1, 10, 12)  (  1, 11, 12)  (  1, 11, 11)
  0 -0.3481E-02  0 -0.1858E-02  0 -0.7549E-03  1  -49.65      0  -28.89    
   (  1,  9, 12)  (  1,  9, 12)  (  1, 10, 11)  (  1, 10, 12)  (  1,  9, 14)
  0   10.10      0  -4.331      0   2.356      0  -1.243      0  0.5031    
   (  1, 16, 15)  (  1,  8, 14)  (  1,  9, 14)  (  1,  9, 13)  (  1, 10, 12)
  0  0.2285      0  0.1709      0 -0.5472E-01  0 -0.1193E-01  0  0.1386E-01
   (  1, 10, 13)  (  1, 10, 13)  (  1, 10, 12)  (  1, 10, 12)  (  1, 11, 12)
  0 -0.4139E-02  0 -0.1159E-02  1  -14.23      0   8.228      0   3.098    
   (  1, 11, 11)  (  1,  9, 12)  (  1, 10, 12)  (  1,  8, 15)  (  1, 16, 15)
  0   1.524      0 -0.5605      0  0.3703      0 -0.1730      0  0.9327E-01
   (  1,  9, 13)  (  1, 10, 13)  (  1,  9, 14)  (  1,  9, 13)  (  1, 10, 13)
  0  0.4399E-01  0 -0.1947E-01  0  0.7024E-02  0  0.3224E-02  0  0.1074E-02
   (  1, 10, 13)  (  1, 10, 12)  (  1, 11, 12)  (  1, 11, 12)  (  1, 12, 10)
  1  -3.806      0   2.328      0 -0.9534      0  0.5679      0 -0.1806    
   (  1, 10, 12)  (  1,  8, 15)  (  1, 17, 14)  (  1,  9, 13)  (  1, 10, 13)
  0  0.1223      0 -0.7042E-01  0  0.3061E-01  0  0.1574E-01  0 -0.6315E-02
   (  1,  9, 14)  (  1,  9, 13)  (  1, 10, 13)  (  1, 10, 13)  (  1, 10, 12)
  0  0.2061E-02  0  0.1089E-02  1   1.031      0  0.6621      0 -0.2962    
   (  1, 11, 12)  (  1, 11, 12)  (  1, 19, 15)  (  1, 18, 15)  (  1, 17, 14)
  0  0.1912      0  0.5435E-01  0  0.3588E-01  0 -0.2289E-01  0  0.9318E-02
   (  1,  9, 13)  (  1, 19, 14)  (  1,  9, 14)  (  1,  9, 13)  (  1, 10, 13)
  0  0.4975E-02  0 -0.2012E-02  0  0.6265E-03  1  0.3230      0  0.1985    
   (  1, 10, 13)  (  1, 10, 12)  (  1, 11, 12)  (  1, 19, 15)  (  1, 18, 15)
  0 -0.9165E-01  0  0.5914E-01  0  0.1699E-01  0  0.9847E-02  0 -0.6826E-02
   (  1, 17, 14)  (  1,  9, 13)  (  1, 19, 14)  (  1,  9, 14)  (  1,  9, 13)
  0  0.2781E-02  0  0.1456E-02  0 -0.6082E-03  1  0.1009      0 -0.6066E-01
   (  1, 10, 13)  (  1, 10, 13)  (  1, 10, 12)  (  1, 19, 15)  (  1, 20, 14)
  0 -0.2846E-01  0  0.1728E-01  0  0.5122E-02  0  0.2595E-02  0 -0.1928E-02
   (  1, 17, 14)  (  1,  9, 13)  (  1, 19, 14)  (  1,  9, 14)  (  1,  9, 13)
  0  0.7922E-03  1  0.3140E-01  0 -0.1873E-01  0 -0.8875E-02  0  0.4799E-02
   (  1, 10, 13)  (  1, 19, 15)  (  1, 20, 14)  (  1, 17, 14)  (  1,  9, 13)
  0  0.1451E-02  0  0.6665E-03  0 -0.5001E-03  1  0.9814E-02  0 -0.5660E-02
   (  1, 18, 14)  (  1,  9, 14)  (  1,  9, 13)  (  1, 19, 15)  (  1, 20, 14)
  0 -0.2797E-02  0  0.1144E-02  0  0.3983E-03  0  0.1732E-03  1  0.3062E-02
   (  1, 17, 14)  (  1,  9, 13)  (  1, 18, 14)  (  1,  9, 14)  (  1, 19, 15)
  0 -0.1687E-02  0 -0.8507E-03  0  0.2369E-03  0  0.1015E-03  1 -0.9841E-03
   (  1, 20, 14)  (  1, 17, 14)  (  1,  9, 13)  (  1, 18, 14)  (  1,  8,  5)
  0 -0.5820E-03  0 -0.2272E-03  0 -0.7417E-04  1  0.2694E-03  0 -0.2117E-03
   (  1, 19, 14)  (  1, 17, 14)  (  1, 17, 14)  (  1, 19, 15)  (  1, 19, 14)
  0 -0.6016E-04  1  0.9508E-04  0 -0.6055E-04  0  0.2784E-04  1 -0.3832E-04
   (  1, 17, 14)  (  1, 19, 15)  (  1, 19, 14)  (  1,  8,  5)  (  1, 19, 13)



 OUTPUT CONTROL FOR STRESS PERIOD    2   TIME STEP    1
    SAVE HEAD FOR ALL LAYERS
    SAVE BUDGET
 UBDSV1 SAVING "         STORAGE" ON UNIT  53 AT TIME STEP  1, STRESS PERIOD   2
 UBDSV2 SAVING "   CONSTANT HEAD" ON UNIT  53 AT TIME STEP  1, STRESS PERIOD   2
 UBDSV1 SAVING "FLOW RIGHT FACE " ON UNIT  53 AT TIME STEP  1, STRESS PERIOD   2
 UBDSV1 SAVING "FLOW FRONT FACE " ON UNIT  53 AT TIME STEP  1, STRESS PERIOD   2

 HEAD WILL BE SAVED ON UNIT   51 AT END OF TIME STEP    1, STRESS PERIOD    2
1
  VOLUMETRIC BUDGET FOR ENTIRE MODEL AT END OF TIME STEP    1, STRESS PERIOD   2
  ------------------------------------------------------------------------------

     CUMULATIVE VOLUMES      L**3       RATES FOR THIS TIME STEP      L**3/T
     ------------------                 ------------------------

           IN:                                      IN:
           ---                                      ---
             STORAGE =    23966042.0000               STORAGE =       13132.0781
       CONSTANT HEAD =      510229.4688         CONSTANT HEAD =         279.5778
               WELLS =           0.0000                 WELLS =           0.0000
       RIVER LEAKAGE =     6485976.5000         RIVER LEAKAGE =        3553.6951
            RECHARGE =     7473156.0000              RECHARGE =        4065.1018

            TOTAL IN =    38435404.0000              TOTAL IN =       21030.4531

          OUT:                                     OUT:
          ----                                     ----
             STORAGE =        2993.3330               STORAGE =           1.6402
       CONSTANT HEAD =     1967323.6250         CONSTANT HEAD =        1075.3740
               WELLS =     4232474.5000                 WELLS =        2318.1370
       RIVER LEAKAGE =    32192156.0000         RIVER LEAKAGE =       17613.1328
            RECHARGE =           0.0000              RECHARGE =           0.0000

           TOTAL OUT =    38394948.0000             TOTAL OUT =       21008.2832

            IN - OUT =       40456.0000              IN - OUT =          22.1699

 PERCENT DISCREPANCY =           0.11     PERCENT DISCREPANCY =           0.11






         TIME SUMMARY AT END OF TIME STEP    1 IN STRESS PERIOD    2
                    SECONDS     MINUTES      HOURS       DAYS        YEARS
                    -----------------------------------------------------------
   TIME STEP LENGTH 1.57680E+08 2.62800E+06  43800.      1825.0      4.9966    
 STRESS PERIOD TIME 1.57680E+08 2.62800E+06  43800.      1825.0      4.9966    
         TOTAL TIME 1.57766E+08 2.62944E+06  43824.      1826.0      4.9993    
1
1
                            STRESS PERIOD NO.    3, LENGTH =   1.000000    
                            -----------------------------------------------

                              NUMBER OF TIME STEPS =     1

                               MULTIPLIER FOR DELT =     1.000

                            INITIAL TIME STEP SIZE =   1.000000    

 WELL NO.  LAYER   ROW   COL   STRESS RATE         
 --------------------------------------------------
      1      1      9     16      -866.8    
      2      1     11     13      -425.7    
      3      1     20     14      -437.3    
      4      1     26     10      -83.07    
      5      1     29      6      -72.97    
      6      1     34     12      -441.3    

      6 WELLS

 REACH NO.  LAYER   ROW   COL     STAGE      CONDUCTANCE     BOTTOM EL.         
 -------------------------------------------------------------------------------
      1      1      1     15       20.42           4787.           20.00    
      2      1      2     15       19.91           4742.           19.75    
      3      1      3     15       19.99           5492.           19.50    
      4      1      4     15       19.27           1590.           19.25    
      5      1      5     15       19.50           5637.           19.00    
      6      1      6     15       18.58           4406.           18.75    
      7      1      7     15       18.81           4429.           18.50    
      8      1      8     15       18.60           4888.           18.25    
      9      1      9     15       18.71           4226.           18.00    
     10      1     10     15       18.93           4330.           17.75    
     11      1     11     15       17.91           3504.           17.50    
     12      1     12     15       17.57           3366.           17.25    
     13      1     13     15       17.23           5567.           17.00    
     14      1     14     15       17.37           3705.           16.75    
     15      1     15     15       16.84           4087.           16.50    
     16      1     16     15       16.80           4525.           16.25    
     17      1     17     15       16.32           2765.           16.00    
     18      1     18     15       16.30           4262.           15.75    
     19      1     19     15       16.15           4252.           15.50    
     20      1     20     15       16.09           5690.           15.25    
     21      1     21     15       15.51           6752.           15.00    
     22      1     22     15       15.36           4245.           14.75    
     23      1     23     15       15.26           4470.           14.50    
     24      1     24     15       15.14           3963.           14.25    
     25      1     25     15       14.67           3235.           14.00    
     26      1     26     15       14.65           3558.           13.75    
     27      1     27     15       14.23           921.2           13.50    
     28      1     28     15       13.87           3187.           13.25    
     29      1     29     15       13.77           4690.           13.00    
     30      1     30     15       13.55           3804.           12.75    
     31      1     31     15       13.21           3628.           12.50    
     32      1     32     15       13.12           4877.           12.25    
     33      1     33     15       12.89           3463.           12.00    
     34      1     34     15       12.61           4895.           11.75    
     35      1     35     15       12.35           5345.           11.50    
     36      1     36     15       12.11           4571.           11.25    
     37      1     37     15       12.03           3408.           11.00    
     38      1     38     15       11.48           5125.           10.75    
     39      1     39     15       11.74           3453.           10.50    
     40      1     40     15       11.44           5151.           10.25    

     40 RIVER REACHES

                 RECHARGE =  9.358508E-05

 SOLVING FOR HEAD 


    29 CALLS TO PCG ROUTINE FOR TIME STEP   1 IN STRESS PERIOD    3
   408 TOTAL ITERATIONS

 MAXIMUM HEAD CHANGE FOR EACH ITERATION (1 INDICATES THE FIRST INNER ITERATION):

    HEAD CHANGE    HEAD CHANGE    HEAD CHANGE    HEAD CHANGE    HEAD CHANGE 
   LAYER,ROW,COL  LAYER,ROW,COL  LAYER,ROW,COL  LAYER,ROW,COL  LAYER,ROW,COL
 ---------------------------------------------------------------------------
  1 -0.5666E+10  0 -0.1749E+10  0  0.8574E+07  0  0.9273E+08  0 -0.1514E+07
   (  1,  4, 12)  (  1,  5, 13)  (  1,  5, 14)  (  1,  5, 14)  (  1,  5, 13)
  0 -0.3601E+07  0 -0.2416E+06  0  0.2934E+05  0  0.2535E+05  0  0.2158E+05
   (  1,  5, 13)  (  1,  5, 13)  (  1,  5, 12)  (  1,  5, 12)  (  1,  5, 12)
  0  0.1123E+05  0   3629.      0   528.8      0  -46.88      0  -108.5    
   (  1,  5, 12)  (  1,  5, 12)  (  1,  5, 12)  (  1,  4, 13)  (  1,  5, 12)
  0  -133.1      0  -27.60      0  -6.736      0 -0.5180      0  -1.043    
   (  1,  5, 12)  (  1,  5, 12)  (  1,  5, 12)  (  1,  5, 12)  (  1,  5, 12)
  0  0.1379      0 -0.4632E-02  0  0.4826E-01  0  0.4057E-01  0  0.5070E-02
   (  1,  4, 13)  (  1,  5, 13)  (  1,  5, 12)  (  1,  5, 12)  (  1,  5, 12)
  1 -0.1700E+10  0 -0.5249E+09  0  0.8091E+07  0  0.2235E+08  0 -0.7376E+06
   (  1,  4, 12)  (  1,  5, 13)  (  1,  5, 14)  (  1,  5, 14)  (  1,  5, 13)
  0 -0.8293E+06  0 -0.2862E+05  0   8409.      0   8487.      0   7220.    
   (  1,  5, 13)  (  1,  5, 13)  (  1,  5, 12)  (  1,  5, 12)  (  1,  5, 12)
  0   354.7      0   280.4      0   53.33      0  -15.40      0  -24.06    
   (  1,  5, 12)  (  1,  5, 12)  (  1,  5, 12)  (  1,  5, 12)  (  1,  5, 12)
  0  -8.738      0  -2.160      0 -0.5203      0 -0.1141      0 -0.2671E-01
   (  1,  5, 12)  (  1,  5, 12)  (  1,  5, 12)  (  1,  5, 12)  (  1,  5, 12)
  0 -0.1337E-01  0  0.1507E-01  0  0.8352E-02  0  0.5053E-02  0 -0.5598E-03
   (  1,  5, 12)  (  1,  5, 12)  (  1,  5, 12)  (  1,  5, 12)  (  1,  4, 13)
  1 -0.5099E+09  0 -0.1575E+09  0  0.7225E+07  0  0.1912E+07  0 -0.2606E+06
   (  1,  4, 12)  (  1,  5, 13)  (  1,  5, 14)  (  1,  5, 14)  (  1,  5, 13)
  0 -0.2108E+06  0  -5665.      0   2608.      0   2576.      0   1927.    
   (  1,  5, 13)  (  1,  5, 13)  (  1,  5, 12)  (  1,  5, 12)  (  1,  5, 12)
  0   81.62      0   11.37      0   11.07      0  -1.019      0  -3.872    
   (  1,  5, 12)  (  1,  5, 12)  (  1,  5, 12)  (  1,  5, 12)  (  1,  5, 12)
  0  -2.982      0 -0.5673      0 -0.9995E-01  0  0.1408E-01  0  0.4889E-03
   (  1,  5, 12)  (  1,  5, 12)  (  1,  5, 12)  (  1,  4, 13)  (  1,  5, 12)
  0  0.1952E-02  0  0.2422E-02  0  0.1946E-02  0  0.4544E-03  0  0.8797E-04
   (  1,  5, 12)  (  1,  5, 12)  (  1,  5, 12)  (  1,  5, 12)  (  1,  5, 12)
  1 -0.1530E+09  0 -0.4724E+08  0  0.2629E+07  0  0.1119E+06  0 -0.8199E+05
   (  1,  4, 12)  (  1,  5, 13)  (  1,  5, 14)  (  1,  5, 14)  (  1,  5, 13)
  0 -0.5960E+05  0   1500.      0   785.6      0   770.1      0   546.5    
   (  1,  5, 13)  (  1,  5, 12)  (  1,  5, 12)  (  1,  5, 12)  (  1,  5, 12)
  0   24.98      0   4.482      0   1.452      0 -0.1613      0 -0.9545    
   (  1,  5, 12)  (  1,  5, 12)  (  1,  5, 12)  (  1,  4, 13)  (  1,  5, 12)
  0 -0.9323      0 -0.1649      0 -0.2801E-01  0  0.3468E-02  0  0.6836E-03
   (  1,  5, 12)  (  1,  5, 12)  (  1,  5, 12)  (  1,  4, 13)  (  1,  5, 12)
  0  0.6053E-03  0  0.6684E-03  0  0.5199E-03  0  0.1081E-03  0  0.1490E-04
   (  1,  5, 12)  (  1,  5, 12)  (  1,  5, 12)  (  1,  5, 12)  (  1,  5, 12)
  1 -0.4589E+08  0 -0.1417E+08  0  0.6435E+06  0  0.1788E+06  0 -0.2492E+05
   (  1,  4, 12)  (  1,  5, 13)  (  1,  5, 14)  (  1,  5, 14)  (  1,  5, 13)
  0 -0.1761E+05  0   435.5      0   234.6      0   231.7      0   157.7    
   (  1,  5, 13)  (  1,  5, 12)  (  1,  5, 12)  (  1,  5, 12)  (  1,  5, 12)
  0   6.831      0   1.360      0   1.153      0 -0.1190      0 -0.3833    
   (  1,  5, 12)  (  1,  5, 12)  (  1,  5, 12)  (  1,  5, 12)  (  1,  5, 12)
  0 -0.3295      0 -0.4924E-01  0 -0.8238E-02  0  0.8247E-03  0  0.5023E-03
   (  1,  5, 12)  (  1,  5, 12)  (  1,  5, 12)  (  1,  4, 13)  (  1,  5, 12)
  0  0.3877E-03  0  0.4045E-03  0  0.1638E-03  0  0.3076E-04  0  0.2423E-05
   (  1,  5, 12)  (  1,  5, 12)  (  1,  5, 12)  (  1,  5, 12)  (  1,  5, 12)
  1 -0.1377E+08  0 -0.4252E+07  0  0.1764E+06  0  0.7027E+05  0  -7710.    
   (  1,  4, 12)  (  1,  5, 13)  (  1,  5, 14)  (  1,  5, 14)  (  1,  5, 13)
  0  -5057.      0   125.8      0   70.50      0   70.98      0   43.57    
   (  1,  5, 13)  (  1,  5, 12)  (  1,  5, 12)  (  1,  5, 12)  (  1,  5, 12)
  0   1.425      0   1.345      0  0.3842      0 -0.3424E-01  0 -0.1170    
   (  1,  5, 12)  (  1,  5, 12)  (  1,  5, 12)  (  1,  5, 12)  (  1,  5, 12)
  0 -0.1010      0 -0.1454E-01  0 -0.2386E-02  0 -0.2295E-03  0  0.5205E-04
   (  1,  5, 12)  (  1,  5, 12)  (  1,  5, 12)  (  1,  5, 12)  (  1,  4, 13)
  0  0.1040E-03  0  0.1471E-03  0  0.4939E-04  0  0.1204E-04  0 -0.2377E-05
   (  1,  5, 12)  (  1,  5, 12)  (  1,  5, 12)  (  1,  5, 12)  (  1,  4, 13)
  1 -0.4130E+07  0 -0.1276E+07  0  0.5807E+05  0  0.1595E+05  0  -2320.    
   (  1,  4, 12)  (  1,  5, 13)  (  1,  5, 14)  (  1,  5, 14)  (  1,  5, 13)
  0  -1511.      0   38.04      0   21.18      0   22.04      0   12.15    
   (  1,  5, 13)  (  1,  5, 12)  (  1,  5, 12)  (  1,  5, 12)  (  1,  5, 12)
  0  0.6445      0  0.1344      0 -0.3257E-01  0 -0.3062E-01  0 -0.4741E-01
   (  1,  5, 12)  (  1,  5, 12)  (  1,  4, 13)  (  1,  5, 12)  (  1,  5, 12)
  0 -0.3310E-01  0 -0.4201E-02  0 -0.6673E-03  0  0.7910E-04  0  0.6668E-04
   (  1,  5, 12)  (  1,  5, 12)  (  1,  5, 12)  (  1,  4, 13)  (  1,  5, 12)
  0  0.2780E-04  0  0.4843E-04  0  0.1549E-04  0  0.4774E-05  1 -0.1239E+07
   (  1,  5, 12)  (  1,  5, 12)  (  1,  5, 12)  (  1,  5, 12)  (  1,  4, 12)
  0 -0.3827E+06  0  0.1982E+05  0   2383.      0  -717.6      0  -432.1    
   (  1,  5, 13)  (  1,  5, 14)  (  1,  5, 14)  (  1,  5, 13)  (  1,  5, 13)
  0   11.04      0   6.356      0   6.941      0   3.150      0  0.1876    
   (  1,  5, 12)  (  1,  5, 12)  (  1,  5, 12)  (  1,  5, 12)  (  1,  5, 12)
  0  0.3119E-01  0  0.2111E-01  0 -0.1155E-01  0 -0.1516E-01  0 -0.1016E-01
   (  1,  5, 12)  (  1,  5, 12)  (  1,  5, 12)  (  1,  5, 12)  (  1,  5, 12)
  0 -0.1228E-02  0 -0.2063E-03  0  0.3967E-04  0  0.1869E-04  0  0.6973E-05
   (  1,  5, 12)  (  1,  5, 12)  (  1,  4, 13)  (  1,  5, 12)  (  1,  5, 12)
  1 -0.3718E+06  0 -0.1148E+06  0   6507.      0   154.5      0  -209.2    
   (  1,  4, 12)  (  1,  5, 13)  (  1,  5, 14)  (  1,  5, 14)  (  1,  5, 13)
  0  -135.2      0   3.519      0   1.920      0   2.133      0  0.9279    
   (  1,  5, 13)  (  1,  5, 12)  (  1,  5, 12)  (  1,  5, 12)  (  1,  5, 12)
  0  0.5515E-01  0  0.1278E-01  0 -0.2527E-02  0 -0.3302E-02  0 -0.5108E-02
   (  1,  5, 12)  (  1,  5, 12)  (  1,  5, 12)  (  1,  5, 12)  (  1,  5, 12)
  0 -0.3224E-02  0 -0.3505E-03  0 -0.5603E-04  0  0.9662E-05  1 -0.1115E+06
   (  1,  5, 12)  (  1,  5, 12)  (  1,  5, 12)  (  1,  4, 13)  (  1,  4, 12)
  0 -0.3443E+05  0   1961.      0   36.64      0  -64.96      0  -38.36    
   (  1,  5, 13)  (  1,  5, 14)  (  1,  5, 14)  (  1,  5, 13)  (  1,  5, 13)
  0   1.009      0  0.5873      0  0.6881      0  0.2329      0  0.1528E-01
   (  1,  5, 12)  (  1,  5, 12)  (  1,  5, 12)  (  1,  5, 12)  (  1,  5, 12)
  0 -0.3302E-02  0 -0.1064E-03  0 -0.2356E-02  0 -0.1566E-02  0 -0.8291E-03
   (  1,  4, 13)  (  1,  5, 12)  (  1,  5, 12)  (  1,  5, 12)  (  1,  5, 12)
  0 -0.1016E-03  0 -0.2008E-04  0  0.3091E-05  1 -0.3347E+05  0 -0.1034E+05
   (  1,  5, 12)  (  1,  5, 12)  (  1,  4, 13)  (  1,  4, 12)  (  1,  5, 13)
  0   579.1      0   21.89      0  -17.96      0  -13.03      0  0.3468    
   (  1,  5, 14)  (  1,  5, 14)  (  1,  5, 13)  (  1,  5, 13)  (  1,  5, 12)
  0  0.1764      0  0.1949      0  0.8726E-01  0  0.5646E-02  0 -0.6967E-03
   (  1,  5, 12)  (  1,  5, 12)  (  1,  5, 12)  (  1,  5, 12)  (  1,  4, 13)
  0 -0.1250E-03  0 -0.1100E-02  0 -0.5672E-03  0 -0.1953E-03  0 -0.3050E-04
   (  1,  4, 13)  (  1,  5, 12)  (  1,  5, 12)  (  1,  5, 12)  (  1,  5, 12)
  0 -0.5134E-05  1 -0.1004E+05  0  -3101.      0   134.8      0   45.18    
   (  1,  5, 12)  (  1,  4, 12)  (  1,  5, 13)  (  1,  5, 14)  (  1,  5, 14)
  0  -5.895      0  -3.477      0  0.9083E-01  0  0.5253E-01  0  0.6293E-01
   (  1,  5, 13)  (  1,  5, 13)  (  1,  5, 12)  (  1,  5, 12)  (  1,  5, 12)
  0  0.2010E-01  0  0.1135E-02  0  0.4782E-03  0 -0.8826E-04  0 -0.5147E-03
   (  1,  5, 12)  (  1,  5, 12)  (  1,  5, 12)  (  1,  4, 13)  (  1,  5, 12)
  0 -0.1966E-03  0 -0.5288E-04  0 -0.9191E-05  1  -3007.      0  -929.9    
   (  1,  5, 12)  (  1,  5, 12)  (  1,  5, 12)  (  1,  4, 12)  (  1,  5, 13)
  0   48.67      0   5.470      0  -1.444      0  -1.398      0 -0.3644E-01
   (  1,  5, 14)  (  1,  5, 14)  (  1,  5, 13)  (  1,  5, 13)  (  1,  5, 13)
  0  0.7911E-02  0  0.5812E-02  0  0.7047E-02  0  0.1046E-02  0 -0.1454E-03
   (  1,  5, 12)  (  1,  5, 12)  (  1,  5, 12)  (  1,  5, 12)  (  1,  4, 13)
  0 -0.2861E-04  0 -0.3355E-03  0 -0.1338E-03  0 -0.7414E-04  0 -0.6516E-05
   (  1,  5, 12)  (  1,  5, 12)  (  1,  5, 12)  (  1,  5, 12)  (  1,  5, 12)
  1  -902.0      0  -279.0      0   8.839      0   7.403      0 -0.5001    
   (  1,  4, 12)  (  1,  5, 13)  (  1,  5, 14)  (  1,  5, 14)  (  1,  5, 13)
  0 -0.3568      0 -0.6661E-02  0  0.2317E-02  0  0.2246E-02  0  0.1700E-02
   (  1,  5, 13)  (  1,  5, 13)  (  1,  5, 12)  (  1,  5, 12)  (  1,  5, 12)
  0 -0.2808E-03  0 -0.9322E-05  1  -270.6      0  -83.69      0   4.821    
   (  1,  4, 13)  (  1,  5, 12)  (  1,  4, 12)  (  1,  5, 13)  (  1,  5, 14)
  0  0.5113E-01  0 -0.1082      0 -0.1467      0 -0.3901E-02  0  0.7339E-03
   (  1,  5, 14)  (  1,  5, 13)  (  1,  5, 13)  (  1,  5, 13)  (  1,  5, 12)
  0  0.5280E-03  0  0.6812E-03  0 -0.1362E-03  0 -0.2329E-04  0 -0.5923E-04
   (  1,  5, 12)  (  1,  5, 12)  (  1,  4, 13)  (  1,  5, 12)  (  1,  5, 12)
  0 -0.2057E-04  0 -0.2090E-04  0 -0.1107E-04  0 -0.1037E-05  1  -81.18    
   (  1,  5, 12)  (  1,  5, 12)  (  1,  5, 12)  (  1,  5, 12)  (  1,  4, 12)
  0  -25.11      0  0.4111      0   1.050      0 -0.5016E-01  0 -0.2715E-01
   (  1,  5, 13)  (  1,  5, 14)  (  1,  5, 14)  (  1,  5, 13)  (  1,  5, 13)
  0  0.4582E-03  0  0.1800E-03  0  0.2311E-03  0  0.1472E-03  0 -0.1729E-04
   (  1,  5, 12)  (  1,  5, 12)  (  1,  5, 12)  (  1,  5, 12)  (  1,  4, 13)
  0 -0.6123E-05  1  -24.36      0  -7.532      0  0.3544      0  0.8412E-01
   (  1,  4, 13)  (  1,  4, 12)  (  1,  5, 13)  (  1,  5, 14)  (  1,  5, 14)
  0 -0.1123E-01  0 -0.1179E-01  0 -0.2949E-03  0  0.7131E-04  0  0.5494E-04
   (  1,  5, 13)  (  1,  5, 13)  (  1,  5, 13)  (  1,  5, 12)  (  1,  5, 12)
  0  0.5125E-04  0 -0.1619E-04  0 -0.2204E-05  1  -7.307      0  -2.260    
   (  1,  5, 12)  (  1,  4, 13)  (  1,  5, 12)  (  1,  4, 12)  (  1,  5, 13)
  0  0.1092      0  0.2233E-01  0 -0.3364E-02  0 -0.3541E-02  0 -0.8919E-04
   (  1,  5, 14)  (  1,  5, 14)  (  1,  5, 13)  (  1,  5, 13)  (  1,  5, 13)
  0  0.2148E-04  0  0.1673E-04  0  0.1505E-04  0 -0.4812E-05  1  -2.192    
   (  1,  5, 12)  (  1,  5, 12)  (  1,  5, 12)  (  1,  4, 13)  (  1,  4, 12)
  0 -0.6779      0  0.3250E-01  0  0.6968E-02  0 -0.1004E-02  0 -0.1067E-02
   (  1,  5, 13)  (  1,  5, 14)  (  1,  5, 14)  (  1,  5, 13)  (  1,  5, 13)
  0 -0.2726E-04  0  0.6572E-05  1 -0.6576      0 -0.2034      0  0.9758E-02
   (  1,  5, 13)  (  1,  5, 12)  (  1,  4, 12)  (  1,  5, 13)  (  1,  5, 14)
  0  0.2082E-02  0 -0.2719E-03  0 -0.3502E-03  0 -0.7698E-05  1 -0.1973    
   (  1,  5, 14)  (  1,  5, 13)  (  1,  5, 13)  (  1,  5, 13)  (  1,  4, 12)
  0 -0.6101E-01  0  0.2922E-02  0  0.6263E-03  0 -0.4045E-04  0 -0.1421E-03
   (  1,  5, 13)  (  1,  5, 14)  (  1,  5, 14)  (  1,  5, 13)  (  1,  5, 13)
  0 -0.7514E-05  1 -0.5919E-01  0 -0.1829E-01  0  0.7591E-04  0  0.4290E-03
   (  1,  5, 13)  (  1,  4, 12)  (  1,  5, 13)  (  1,  5, 14)  (  1,  5, 14)
  0  0.5486E-03  0 -0.1487E-04  0 -0.2023E-04  0 -0.1283E-04  0  0.2257E-05
   (  1,  5, 14)  (  1,  5, 13)  (  1,  5, 13)  (  1,  5, 13)  (  1,  5, 12)
  1 -0.1777E-01  0 -0.5459E-02  0 -0.3755E-04  0  0.7272E-04  0  0.2239E-03
   (  1,  4, 12)  (  1,  5, 13)  (  1,  5, 13)  (  1,  5, 14)  (  1,  5, 14)
  0  0.1301E-04  0  0.5183E-05  1 -0.5331E-02  0 -0.1638E-02  0 -0.1141E-04
   (  1,  5, 14)  (  1,  4, 13)  (  1,  4, 12)  (  1,  5, 13)  (  1,  5, 13)
  0  0.2129E-04  0  0.6640E-04  0  0.5287E-05  1 -0.1600E-02  0 -0.4913E-03
   (  1,  5, 14)  (  1,  5, 14)  (  1,  5, 14)  (  1,  4, 12)  (  1,  5, 13)
  0 -0.3606E-05  1 -0.4764E-03  0 -0.5416E-04  0 -0.9536E-04  0  0.1044E-04
   (  1,  5, 13)  (  1,  4, 12)  (  1,  5, 13)  (  1,  5, 13)  (  1,  4, 12)
  0  0.4144E-05  1 -0.1429E-03  0 -0.1657E-04  0 -0.2800E-04  0  0.4846E-05
   (  1,  5, 14)  (  1,  4, 12)  (  1,  5, 13)  (  1,  5, 13)  (  1,  4, 12)
  1 -0.4308E-04  0 -0.5093E-05  1 -0.3010E-05
   (  1,  4, 12)  (  1,  5, 13)  (  1,  5, 13)

 MAXIMUM RESIDUAL FOR EACH ITERATION (1 INDICATES THE FIRST INNER ITERATION):

    RESIDUAL       RESIDUAL       RESIDUAL       RESIDUAL       RESIDUAL    
   LAYER,ROW,COL  LAYER,ROW,COL  LAYER,ROW,COL  LAYER,ROW,COL  LAYER,ROW,COL
 ---------------------------------------------------------------------------
  1  -4714.      0  0.5895E+05  0 -0.4479E+05  0  -3373.      0  -2050.    
   (  1,  9,  4)  (  1,  9,  4)  (  1,  9,  4)  (  1, 11, 12)  (  1,  9, 13)
  0   3848.      0  -212.9      0  -124.3      0  -40.16      0  -44.47    
   (  1, 10, 12)  (  1, 19, 13)  (  1, 11, 12)  (  1,  9, 13)  (  1,  9,  4)
  0   13.47      0  -12.69      0   5.822      0   3.594      0  -2.379    
   (  1, 21, 11)  (  1, 10, 12)  (  1,  6, 15)  (  1,  6, 15)  (  1,  9, 13)
  0 -0.5588      0  0.2145      0 -0.8789E-01  0 -0.7955E-01  0  0.3744E-01
   (  1, 11, 12)  (  1, 10, 13)  (  1, 10, 12)  (  1, 10, 12)  (  1, 39, 15)
  0  0.2600E-01  0  0.1229E-01  0  0.4015E-02  0  0.1110E-02  0 -0.4042E-03
   (  1, 39, 15)  (  1, 39, 15)  (  1, 39, 15)  (  1,  9, 12)  (  1, 39, 14)
  1  -554.5      0   6030.      0 -0.2249E+05  0  -813.1      0   1275.    
   (  1,  9,  4)  (  1,  9,  4)  (  1,  9,  4)  (  1, 11, 12)  (  1, 11, 12)
  0   738.6      0  -38.97      0  -19.74      0   15.46      0   3.531    
   (  1, 10, 12)  (  1, 19, 13)  (  1, 11, 12)  (  1, 10, 12)  (  1,  8,  5)
  0   2.661      0  -2.106      0  -1.454      0 -0.6835      0 -0.2238    
   (  1,  9, 13)  (  1, 10, 12)  (  1,  5, 15)  (  1,  9, 13)  (  1,  9, 13)
  0 -0.7675E-01  0  0.4715E-01  0 -0.2492E-01  0 -0.1139E-01  0  0.9854E-02
   (  1, 11, 12)  (  1,  9, 12)  (  1, 10, 12)  (  1,  7, 14)  (  1,  9, 12)
  0  0.5252E-02  0  0.2896E-02  0 -0.8862E-03  0  0.2550E-03  0 -0.1696E-03
   (  1, 39, 15)  (  1,  9, 12)  (  1,  8, 13)  (  1,  8, 12)  (  1,  9, 12)
  1   84.65      0   504.7      0  -6192.      0  -218.8      0   446.3    
   (  1,  6, 15)  (  1,  9,  4)  (  1,  9,  4)  (  1, 11, 12)  (  1, 11, 12)
  0   167.3      0  -9.645      0  -3.967      0   4.524      0  0.9154    
   (  1, 10, 12)  (  1, 19, 13)  (  1, 11, 12)  (  1, 10, 12)  (  1,  9, 13)
  0 -0.6404      0 -0.5812      0 -0.4440      0 -0.1980      0 -0.8594E-01
   (  1,  5, 15)  (  1,  5, 15)  (  1,  5, 15)  (  1,  5, 15)  (  1,  9, 13)
  0  0.1955E-01  0  0.1072E-01  0 -0.4349E-02  0  0.3169E-02  0 -0.1267E-02
   (  1,  9, 12)  (  1,  9, 12)  (  1, 10, 12)  (  1,  9, 12)  (  1,  9, 13)
  0  0.7493E-03  0  0.5233E-03  0  0.1564E-03  0  0.8633E-04  0 -0.5190E-04
   (  1, 39, 15)  (  1,  9, 12)  (  1, 10, 11)  (  1,  8, 12)  (  1,  9, 12)
  1   28.00      0  -60.77      0   895.4      0  -61.91      0   137.6    
   (  1,  6, 15)  (  1,  9,  4)  (  1,  9,  4)  (  1, 11, 12)  (  1, 11, 12)
  0   42.36      0  -3.054      0 -0.9460      0   1.326      0  0.2859    
   (  1, 10, 12)  (  1, 10, 12)  (  1, 11, 12)  (  1, 10, 12)  (  1,  9, 12)
  0 -0.1974      0 -0.1610      0 -0.1384      0 -0.6974E-01  0 -0.2817E-01
   (  1,  5, 15)  (  1,  5, 15)  (  1,  5, 15)  (  1,  5, 15)  (  1,  5, 15)
  0  0.7033E-02  0 -0.3463E-02  0  0.1602E-02  0  0.7542E-03  0  0.5539E-03
   (  1,  9, 12)  (  1, 11, 12)  (  1,  9, 12)  (  1,  9, 12)  (  1,  9, 12)
  0  0.3164E-03  0 -0.8132E-04  0 -0.4073E-04  0  0.2812E-04  0  0.1708E-04
   (  1,  9, 12)  (  1,  8, 13)  (  1, 10, 10)  (  1, 10, 11)  (  1,  8, 12)
  1   9.303      0  -46.37      0   552.6      0  -18.35      0   41.58    
   (  1,  6, 15)  (  1,  9,  4)  (  1,  9,  4)  (  1, 11, 12)  (  1, 11, 12)
  0   11.35      0  -1.098      0  0.2473      0  0.3920      0  0.9345E-01
   (  1, 10, 12)  (  1, 10, 12)  (  1, 19, 12)  (  1, 10, 12)  (  1,  9, 12)
  0 -0.6335E-01  0 -0.5728E-01  0 -0.4270E-01  0 -0.2060E-01  0 -0.7823E-02
   (  1,  5, 15)  (  1,  5, 15)  (  1,  5, 15)  (  1,  5, 15)  (  1,  5, 15)
  0  0.2237E-02  0  0.1081E-02  0  0.5393E-03  0  0.2154E-03  0  0.1586E-03
   (  1,  9, 12)  (  1,  9, 12)  (  1,  9, 12)  (  1,  9, 12)  (  1,  9, 12)
  0  0.1106E-03  0 -0.1948E-04  0  0.1313E-04  0 -0.8690E-05  0  0.5453E-05
   (  1,  9, 12)  (  1, 11, 13)  (  1,  8, 12)  (  1,  9, 12)  (  1,  8, 12)
  1   3.092      0  -16.67      0   180.6      0  -5.719      0   13.63    
   (  1,  6, 15)  (  1,  9,  4)  (  1,  9,  4)  (  1, 11, 12)  (  1, 11, 12)
  0   3.123      0 -0.3498      0  0.6240E-01  0  0.1177      0  0.3084E-01
   (  1, 10, 12)  (  1, 10, 12)  (  1, 19, 12)  (  1, 10, 12)  (  1,  9, 12)
  0 -0.2205E-01  0 -0.1821E-01  0 -0.1339E-01  0 -0.6469E-02  0 -0.2427E-02
   (  1,  5, 15)  (  1,  5, 15)  (  1,  5, 15)  (  1,  5, 15)  (  1,  5, 15)
  0  0.6748E-03  0  0.3831E-03  0  0.1535E-03  0  0.1303E-03  0  0.1095E-03
   (  1,  9, 12)  (  1,  9, 12)  (  1,  9, 12)  (  1,  9, 12)  (  1,  9, 12)
  0 -0.2975E-04  0 -0.1166E-04  0  0.5806E-05  0  0.3101E-05  0 -0.1896E-05
   (  1,  9, 13)  (  1, 11, 11)  (  1, 10, 11)  (  1,  8, 12)  (  1,  9, 12)
  1   1.026      0  -4.141      0   49.57      0  -1.749      0   4.220    
   (  1,  6, 15)  (  1,  9,  4)  (  1,  9,  4)  (  1, 11, 12)  (  1, 11, 12)
  0  0.8849      0 -0.1117      0  0.1624E-01  0  0.3570E-01  0  0.9774E-02
   (  1, 10, 12)  (  1, 10, 12)  (  1, 19, 12)  (  1, 10, 12)  (  1,  9, 12)
  0 -0.6093E-02  0 -0.4775E-02  0 -0.4044E-02  0 -0.1842E-02  0 -0.7584E-03
   (  1,  5, 15)  (  1,  5, 15)  (  1,  5, 15)  (  1,  5, 15)  (  1,  9, 13)
  0  0.2028E-03  0  0.1322E-03  0 -0.5249E-04  0  0.4344E-04  0 -0.1259E-04
   (  1,  9, 12)  (  1,  9, 12)  (  1, 10, 12)  (  1,  9, 12)  (  1,  9, 13)
  0 -0.7050E-05  0 -0.3936E-05  0  0.1894E-05  0  0.9810E-06  1  0.3401    
   (  1,  9, 13)  (  1, 11, 11)  (  1, 10, 11)  (  1,  8, 12)  (  1,  6, 15)
  0 -0.8130      0   11.25      0 -0.5592      0   1.419      0  0.2523    
   (  1,  9,  4)  (  1,  9,  4)  (  1, 11, 12)  (  1, 11, 12)  (  1, 11, 12)
  0 -0.3254E-01  0  0.5236E-02  0  0.1111E-01  0  0.3061E-02  0 -0.1914E-02
   (  1, 10, 12)  (  1,  7, 14)  (  1, 10, 12)  (  1,  9, 12)  (  1,  5, 15)
  0 -0.1633E-02  0 -0.1263E-02  0 -0.5498E-03  0 -0.2285E-03  0 -0.6693E-04
   (  1,  5, 15)  (  1,  5, 15)  (  1,  5, 15)  (  1,  9, 13)  (  1, 11, 12)
  0  0.4687E-04  0 -0.1846E-04  0  0.1425E-04  0 -0.4539E-05  0 -0.2825E-05
   (  1,  9, 12)  (  1, 10, 12)  (  1,  9, 12)  (  1,  9, 13)  (  1,  9, 13)
  1  0.1125      0 -0.1098      0   1.650      0 -0.1682      0  0.4162    
   (  1,  6, 15)  (  1,  9,  4)  (  1,  9,  4)  (  1, 11, 12)  (  1, 11, 12)
  0  0.7995E-01  0 -0.9717E-02  0  0.1713E-02  0  0.3623E-02  0  0.9180E-03
   (  1, 11, 12)  (  1, 10, 12)  (  1,  7, 14)  (  1, 10, 12)  (  1,  9, 12)
  0 -0.5918E-03  0 -0.4256E-03  0 -0.2640E-03  0 -0.1490E-03  0 -0.7678E-04
   (  1,  5, 15)  (  1,  5, 15)  (  1,  5, 15)  (  1,  5, 15)  (  1,  9, 13)
  0 -0.1896E-04  0  0.1582E-04  0 -0.5989E-05  0  0.4353E-05  1  0.3720E-01
   (  1, 11, 12)  (  1,  9, 12)  (  1, 10, 12)  (  1,  9, 12)  (  1,  6, 15)
  0  0.2939E-01  0 -0.4377      0 -0.5525E-01  0 -0.1428      0  0.2208E-01
   (  1,  9,  4)  (  1,  9,  4)  (  1, 11, 12)  (  1,  9, 13)  (  1, 11, 12)
  0 -0.2624E-02  0  0.5669E-03  0  0.1190E-02  0  0.2717E-03  0 -0.1833E-03
   (  1, 11, 12)  (  1,  7, 14)  (  1, 10, 12)  (  1,  9, 12)  (  1,  5, 15)
  0 -0.1302E-03  0 -0.1079E-03  0 -0.4192E-04  0 -0.1960E-04  0 -0.7147E-05
   (  1,  5, 15)  (  1,  5, 15)  (  1,  9, 13)  (  1,  9, 13)  (  1, 11, 12)
  0  0.5477E-05  0  0.2133E-05  0  0.1346E-05  1  0.1231E-01  0  0.1203E-01
   (  1,  9, 12)  (  1,  9, 12)  (  1,  9, 12)  (  1,  6, 15)  (  1,  9,  4)
  0 -0.1834      0  0.1651E-01  0 -0.3837E-01  0  0.7819E-02  0 -0.8811E-03
   (  1,  9,  4)  (  1,  9, 13)  (  1,  9, 13)  (  1, 11, 12)  (  1, 11, 12)
  0  0.1844E-03  0  0.3646E-03  0  0.8460E-04  0 -0.5712E-04  0 -0.4447E-04
   (  1,  7, 14)  (  1, 10, 12)  (  1,  9, 12)  (  1,  5, 15)  (  1,  5, 15)
  0 -0.3442E-04  0 -0.1258E-04  0 -0.6018E-05  0  0.1946E-05  0  0.1784E-05
   (  1,  5, 15)  (  1,  9, 13)  (  1,  9, 13)  (  1,  9, 12)  (  1,  9, 12)
  0  0.6443E-06  1  0.4034E-02  0  0.1122E-01  0 -0.1267      0  0.5581E-02
   (  1,  9, 12)  (  1,  6, 15)  (  1,  9,  4)  (  1,  9,  4)  (  1,  9, 13)
  0 -0.1450E-01  0  0.1928E-02  0  0.2382E-03  0  0.6012E-04  0  0.1174E-03
   (  1,  9, 13)  (  1, 11, 12)  (  1,  8, 13)  (  1,  7, 14)  (  1, 10, 12)
  0  0.2500E-04  0 -0.1923E-04  0 -0.1610E-04  0 -0.9774E-05  0 -0.3733E-05
   (  1,  9, 12)  (  1,  5, 15)  (  1,  5, 15)  (  1,  5, 15)  (  1,  9, 13)
  0 -0.1506E-05  0  0.7181E-06  0  0.5874E-06  1  0.1346E-02  0  0.1860E-02
   (  1,  9, 13)  (  1,  9, 12)  (  1,  9, 12)  (  1,  6, 15)  (  1,  9,  4)
  0 -0.2657E-01  0  0.1735E-02  0 -0.3322E-02  0  0.8299E-03  0  0.8481E-04
   (  1,  9,  4)  (  1,  9, 13)  (  1,  9, 13)  (  1, 11, 12)  (  1,  8, 13)
  0  0.2360E-04  0  0.1956E-04  0  0.8982E-05  0  0.6544E-05  0  0.5206E-05
   (  1,  8, 13)  (  1, 10, 12)  (  1,  9,  2)  (  1,  9,  2)  (  1,  9,  2)
  0  0.3101E-05  0 -0.1025E-05  0 -0.8502E-06  0  0.2231E-06  0  0.1874E-06
   (  1,  9,  2)  (  1, 12, 11)  (  1,  9, 13)  (  1,  9, 12)  (  1,  9, 12)
  1 -0.4937E-03  0  0.1628E-02  0 -0.1292E-01  0  0.5971E-03  0 -0.1406E-02
   (  1, 10,  1)  (  1,  9,  4)  (  1,  9,  4)  (  1,  9, 13)  (  1,  9, 13)
  0 -0.1659E-03  0  0.1955E-04  0 -0.8816E-05  0 -0.6226E-05  0 -0.3717E-05
   (  1,  9, 13)  (  1,  8, 13)  (  1,  9,  2)  (  1,  9,  2)  (  1,  9,  2)
  0 -0.2321E-05  0 -0.1512E-05  1  0.2190E-03  0  0.6776E-04  0  0.8244E-03
   (  1,  9,  2)  (  1,  9,  2)  (  1, 10,  1)  (  1,  9,  2)  (  1,  9,  4)
  0  0.1449E-03  0 -0.2144E-03  0 -0.6948E-04  0  0.8200E-05  0  0.3897E-05
   (  1,  9, 13)  (  1,  9, 13)  (  1,  9, 13)  (  1,  8, 13)  (  1,  9,  2)
  0  0.2981E-05  0  0.1594E-05  0  0.8894E-06  0  0.4525E-06  0  0.1446E-06
   (  1,  9,  2)  (  1,  9,  2)  (  1,  9,  2)  (  1,  9,  2)  (  1,  8, 13)
  0  0.1103E-06  0 -0.9527E-07  0  0.2840E-07  0 -0.1671E-07  1 -0.9172E-04
   (  1,  8, 13)  (  1,  9, 13)  (  1,  9, 12)  (  1, 11, 12)  (  1, 10,  1)
  0  0.2733E-03  0 -0.9874E-03  0  0.5628E-04  0 -0.1525E-03  0  0.7540E-05
   (  1,  9,  4)  (  1,  9,  4)  (  1,  9, 13)  (  1,  9, 13)  (  1, 10, 12)
  0 -0.2013E-05  0 -0.1622E-05  0 -0.1040E-05  0 -0.5612E-06  0 -0.3625E-06
   (  1,  9,  2)  (  1,  9,  2)  (  1,  9,  2)  (  1,  9,  2)  (  1,  9,  2)
  0 -0.2098E-06  1  0.2507E-04  0 -0.2355E-04  0  0.2815E-03  0  0.1234E-04
   (  1,  9,  2)  (  1, 10,  1)  (  1,  9,  4)  (  1,  9,  4)  (  1,  9, 13)
  0 -0.2214E-04  0  0.4060E-05  0 -0.7860E-06  0  0.4457E-06  0  0.3233E-06
   (  1,  9, 13)  (  1, 11, 12)  (  1, 18, 13)  (  1,  9,  2)  (  1,  9,  2)
  0  0.1860E-06  0  0.9274E-07  0  0.4391E-07  1  0.7525E-05  0 -0.6565E-05
   (  1,  9,  2)  (  1,  9,  2)  (  1,  9,  2)  (  1, 10,  1)  (  1,  9,  4)
  0  0.8059E-04  0  0.3776E-05  0 -0.6748E-05  0  0.1263E-05  0 -0.2426E-06
   (  1,  9,  4)  (  1,  9, 13)  (  1,  9, 13)  (  1, 11, 12)  (  1, 18, 13)
  0  0.1339E-06  0  0.9646E-07  0  0.5587E-07  0  0.2824E-07  1  0.2259E-05
   (  1,  9,  2)  (  1,  9,  2)  (  1,  9,  2)  (  1,  9,  2)  (  1, 10,  1)
  0 -0.2018E-05  0  0.2455E-04  0  0.1082E-05  0 -0.1926E-05  0  0.3530E-06
   (  1,  9,  4)  (  1,  9,  4)  (  1,  9, 13)  (  1,  9, 13)  (  1, 11, 12)
  0 -0.6791E-07  0  0.4054E-07  1  0.6789E-06  0 -0.6037E-06  0  0.7355E-05
   (  1, 18, 13)  (  1,  9,  2)  (  1, 10,  1)  (  1,  9,  4)  (  1,  9,  4)
  0  0.2599E-06  0 -0.3874E-06  0 -0.9878E-07  0 -0.2074E-07  1  0.2041E-06
   (  1,  9, 13)  (  1,  9, 13)  (  1,  9, 13)  (  1, 18, 13)  (  1, 10,  1)
  0 -0.1808E-06  0  0.2199E-05  0 -0.1268E-06  0 -0.4650E-07  0 -0.3825E-07
   (  1,  9,  4)  (  1,  9,  4)  (  1, 21, 12)  (  1,  3, 12)  (  1, 19, 14)
  0  0.6361E-08  1 -0.4118E-05  0 -0.2084E-05  0 -0.1956E-05  0 -0.1379E-05
   (  1,  4, 11)  (  1, 31, 15)  (  1, 31, 15)  (  1, 31, 15)  (  1, 31, 15)
  0 -0.6159E-06  0 -0.5072E-06  0 -0.2881E-06  0 -0.1113E-06  0 -0.6155E-07
   (  1, 31, 15)  (  1, 31, 15)  (  1, 31, 15)  (  1, 31, 15)  (  1, 31, 15)
  1  0.2869E-05  0  0.1459E-05  0  0.1378E-05  0  0.1139E-05  0  0.4323E-06
   (  1, 31, 15)  (  1, 31, 15)  (  1, 31, 15)  (  1, 31, 15)  (  1, 31, 15)
  0  0.3266E-06  0  0.1893E-06  1  0.9536E-06  0  0.4820E-06  0  0.4547E-06
   (  1, 31, 15)  (  1, 31, 15)  (  1, 31, 15)  (  1, 31, 15)  (  1, 31, 15)
  0  0.3762E-06  0  0.1443E-06  0  0.1031E-06  1  0.3377E-06  0  0.1683E-06
   (  1, 31, 15)  (  1, 31, 15)  (  1, 31, 15)  (  1, 31, 15)  (  1, 31, 15)
  0  0.1587E-06  1  0.1806E-06  0  0.1491E-06  0  0.8865E-07  0  0.7262E-07
   (  1, 31, 15)  (  1, 31, 15)  (  1, 31, 15)  (  1, 31, 15)  (  1, 31, 15)
  0  0.4866E-07  1  0.7865E-07  0  0.6488E-07  0  0.3908E-07  0  0.3110E-07
   (  1, 31, 15)  (  1, 31, 15)  (  1, 31, 15)  (  1, 31, 15)  (  1, 31, 15)
  1  0.3918E-07  0  0.3221E-07  1  0.3601E-07
   (  1, 31, 15)  (  1, 31, 15)  (  1, 31, 15)



 OUTPUT CONTROL FOR STRESS PERIOD    3   TIME STEP    1
    SAVE HEAD FOR ALL LAYERS
    SAVE BUDGET
 UBDSV2 SAVING "   CONSTANT HEAD" ON UNIT  53 AT TIME STEP  1, STRESS PERIOD   3
 UBDSV1 SAVING "FLOW RIGHT FACE " ON UNIT  53 AT TIME STEP  1, STRESS PERIOD   3
 UBDSV1 SAVING "FLOW FRONT FACE " ON UNIT  53 AT TIME STEP  1, STRESS PERIOD   3

 HEAD WILL BE SAVED ON UNIT   51 AT END OF TIME STEP    1, STRESS PERIOD    3
1
  VOLUMETRIC BUDGET FOR ENTIRE MODEL AT END OF TIME STEP    1, STRESS PERIOD   3
  ------------------------------------------------------------------------------

     CUMULATIVE VOLUMES      L**3       RATES FOR THIS TIME STEP      L**3/T
     ------------------                 ------------------------

           IN:                                      IN:
           ---                                      ---
             STORAGE =    23966042.0000               STORAGE =           0.0000
       CONSTANT HEAD =      511813.5312         CONSTANT HEAD =        1584.0630
               WELLS =           0.0000                 WELLS =           0.0000
       RIVER LEAKAGE =     6492953.0000         RIVER LEAKAGE =        6976.6777
            RECHARGE =     7477221.0000              RECHARGE =        4065.1018

            TOTAL IN =    38448028.0000              TOTAL IN =       12625.8418

          OUT:                                     OUT:
          ----                                     ----
             STORAGE =        2993.3330               STORAGE =           0.0000
       CONSTANT HEAD =     1968112.2500         CONSTANT HEAD =         788.6340
               WELLS =     4234801.5000                 WELLS =        2327.2019
       RIVER LEAKAGE =    32201666.0000         RIVER LEAKAGE =        9510.0225
            RECHARGE =           0.0000              RECHARGE =           0.0000

           TOTAL OUT =    38407572.0000             TOTAL OUT =       12625.8584

            IN - OUT =       40456.0000              IN - OUT =      -1.6602E-02

 PERCENT DISCREPANCY =           0.11     PERCENT DISCREPANCY =          -0.00






         TIME SUMMARY AT END OF TIME STEP    1 IN STRESS PERIOD    3
                    SECONDS     MINUTES      HOURS       DAYS        YEARS
                    -----------------------------------------------------------
   TIME STEP LENGTH  86400.      1440.0      24.000      1.0000     2.73785E-03
 STRESS PERIOD TIME  86400.      1440.0      24.000      1.0000     2.73785E-03
         TOTAL TIME 1.57853E+08 2.63088E+06  43848.      1827.0      5.0021    
1

 Run end date and time (yyyy/mm/dd hh:mm:ss): 2016/05/12 14:04:54
 Elapsed run time:  0.037 Seconds

