                                  MODFLOW-2005     
      U.S. GEOLOGICAL SURVEY MODULAR FINITE-DIFFERENCE GROUND-WATER FLOW MODEL
                            VERSION 1.11.00 8/8/2013

 LIST FILE: freyberg.list
                         UNIT    2

 OPENING freyberg.hyd
 FILE TYPE:HYD   UNIT   36   STATUS:OLD    
 FORMAT:FORMATTED              ACCESS:SEQUENTIAL          

 OPENING freyberg.dis
 FILE TYPE:DIS   UNIT   11   STATUS:OLD    
 FORMAT:FORMATTED              ACCESS:SEQUENTIAL          

 OPENING freyberg_pp.lpf
 FILE TYPE:LPF   UNIT   31   STATUS:OLD    
 FORMAT:FORMATTED              ACCESS:SEQUENTIAL          

 OPENING freyberg.pcg
 FILE TYPE:PCG   UNIT   32   STATUS:OLD    
 FORMAT:FORMATTED              ACCESS:SEQUENTIAL          

 OPENING freyberg.bas
 FILE TYPE:BAS6   UNIT   13   STATUS:OLD    
 FORMAT:FORMATTED              ACCESS:SEQUENTIAL          

 OPENING freyberg.rch
 FILE TYPE:RCH   UNIT   19   STATUS:OLD    
 FORMAT:FORMATTED              ACCESS:SEQUENTIAL          

 OPENING freyberg.wel
 FILE TYPE:WEL   UNIT   20   STATUS:OLD    
 FORMAT:FORMATTED              ACCESS:SEQUENTIAL          

 OPENING freyberg.riv
 FILE TYPE:RIV   UNIT   18   STATUS:OLD    
 FORMAT:FORMATTED              ACCESS:SEQUENTIAL          

 OPENING freyberg.oc
 FILE TYPE:OC   UNIT   14   STATUS:OLD    
 FORMAT:FORMATTED              ACCESS:SEQUENTIAL          

 OPENING freyberg.hds
 FILE TYPE:DATA(BINARY)   UNIT   51   STATUS:REPLACE
 FORMAT:BINARY                 ACCESS:SEQUENTIAL          

 OPENING freyberg.ddn
 FILE TYPE:DATA(BINARY)   UNIT   52   STATUS:REPLACE
 FORMAT:BINARY                 ACCESS:SEQUENTIAL          

 OPENING freyberg.cbc
 FILE TYPE:DATA(BINARY)   UNIT   53   STATUS:REPLACE
 FORMAT:BINARY                 ACCESS:SEQUENTIAL          

 OPENING freyberg.hyd.bin
 FILE TYPE:DATA(BINARY)   UNIT  536   STATUS:REPLACE
 FORMAT:BINARY                 ACCESS:SEQUENTIAL          

 BAS -- BASIC PACKAGE, VERSION 7, 5/2/2005 INPUT READ FROM UNIT   13
 
 MODFLOW was compiled using mixed precision
 Precision of REAL variables:           6
 Precision of DOUBLE PRECISION variables:          15

 DISCRETIZATION INPUT DATA READ FROM UNIT   11
 # Discretization file for MODFLOW, generated by Flopy.
    1 LAYERS        40 ROWS        20 COLUMNS
    3 STRESS PERIOD(S) IN SIMULATION
 MODEL TIME UNIT IS DAYS
 MODEL LENGTH UNIT IS METERS
  Confining bed flag for each layer:
   0



                               DELR
 READING ON UNIT   11 WITH FORMAT: (20G15.6)           



                               DELC
 READING ON UNIT   11 WITH FORMAT: (40G15.6)           

 TOP ELEVATION OF LAYER 1 =   35.0000    

 OPENING FILE ON UNIT   99:
 botm.ref                                                                                                                                                                                                



             MODEL LAYER BOTTOM EL. FOR LAYER   1
 READING ON UNIT   99 WITH FORMAT: (10E12.4)           


 STRESS PERIOD     LENGTH       TIME STEPS     MULTIPLIER FOR DELT    SS FLAG
 ----------------------------------------------------------------------------
        1        1.0000000          1                    1.000         SS
        2         1825.000          1                    1.000         TR
        3        1.0000000          1                    1.000         SS

 COMBINED STEADY-STATE AND TRANSIENT SIMULATION



 
 # Basic package file for MODFLOW, generated by Flopy.                           
 THE FREE FORMAT OPTION HAS BEEN SELECTED

 OPENING FILE ON UNIT   99:
 ibound.ref                                                                                                                                                                                              



                     BOUNDARY ARRAY FOR LAYER   1
 READING ON UNIT   99 WITH FORMAT: (25I3)              

 AQUIFER HEAD WILL BE SET TO  -999.99     AT ALL NO-FLOW NODES (IBOUND=0).

 OPENING FILE ON UNIT   99:
 strt.ref                                                                                                                                                                                                



                       INITIAL HEAD FOR LAYER   1
 READING ON UNIT   99 WITH FORMAT: (10E12.4)           
 # Output control package file for MODFLOW, generated by Flopy.

 OUTPUT CONTROL IS SPECIFIED ONLY AT TIME STEPS FOR WHICH OUTPUT IS DESIRED
 COMPACT CELL-BY-CELL BUDGET FILES WILL BE WRITTEN
 AUXILIARY DATA WILL BE SAVED IN CELL-BY-CELL BUDGET FILES
 HEAD PRINT FORMAT CODE IS   0    DRAWDOWN PRINT FORMAT CODE IS   0
 HEADS WILL BE SAVED ON UNIT   51    DRAWDOWNS WILL BE SAVED ON UNIT   52

 LPF -- LAYER-PROPERTY FLOW PACKAGE, VERSION 7, 5/2/2005
         INPUT READ FROM UNIT   31
 # LPF for MODFLOW-2005, generated by Flopy.
 CELL-BY-CELL FLOWS WILL BE SAVED ON UNIT   53
 HEAD AT CELLS THAT CONVERT TO DRY= -1.00000E+30
 No named parameters

   LAYER FLAGS:
 LAYER       LAYTYP        LAYAVG         CHANI        LAYVKA        LAYWET
 ---------------------------------------------------------------------------
    1             1             0     1.000E+00             0             0

   INTERPRETATION OF LAYER FLAGS:
                        INTERBLOCK     HORIZONTAL    DATA IN
         LAYER TYPE   TRANSMISSIVITY   ANISOTROPY   ARRAY VKA   WETTABILITY
 LAYER      (LAYTYP)      (LAYAVG)       (CHANI)      (LAYVKA)      (LAYWET)
 ---------------------------------------------------------------------------
    1   CONVERTIBLE      HARMONIC     1.000E+00    VERTICAL K  NON-WETTABLE

 WETTING CAPABILITY IS NOT ACTIVE IN ANY LAYER

 OPENING FILE ON UNIT   99:
 hk.ref                                                                                                                                                                                                  



              HYD. COND. ALONG ROWS FOR LAYER   1
 READING ON UNIT   99 WITH FORMAT: (FREE)              

      VERTICAL HYD. COND. =  1.000000     FOR LAYER   1

         SPECIFIC STORAGE =  1.000000E-04 FOR LAYER   1

           SPECIFIC YIELD =  0.250000     FOR LAYER   1

 WEL -- WELL PACKAGE, VERSION 7, 5/2/2005 INPUT READ FROM UNIT   20
 # Well file for MODFLOW, generated by Flopy.
 No named parameters
 MAXIMUM OF      6 ACTIVE WELLS AT ONE TIME


     0 Well parameters

 RIV -- RIVER PACKAGE, VERSION 7, 5/2/2005 INPUT READ FROM UNIT   18
 # RIV for MODFLOW, generated by Flopy.
 No named parameters
 MAXIMUM OF     40 ACTIVE RIVER REACHES AT ONE TIME


     0 River parameters

 RCH -- RECHARGE PACKAGE, VERSION 7, 5/2/2005 INPUT READ FROM UNIT   19
 # RCH for MODFLOW, generated by Flopy.
 No named parameters
 OPTION 3 -- RECHARGE TO HIGHEST ACTIVE NODE IN EACH VERTICAL COLUMN


     0 Recharge parameters

 PCG -- CONJUGATE-GRADIENT SOLUTION PACKAGE, VERSION 7, 5/2/2005
 MAXIMUM OF    100 CALLS OF SOLUTION ROUTINE
 MAXIMUM OF     25 INTERNAL ITERATIONS PER CALL TO SOLUTION ROUTINE
 MATRIX PRECONDITIONING TYPE :    1
 IHCOFADD option -- When an active cell is surrounded by dry cells, convert
 the cell to dry only if storage and head-dependent boundary flow are 0.



                                    SOLUTION BY THE CONJUGATE-GRADIENT METHOD
                                   -------------------------------------------
                    MAXIMUM NUMBER OF CALLS TO PCG ROUTINE =      100
                        MAXIMUM ITERATIONS PER CALL TO PCG =       25
                               MATRIX PRECONDITIONING TYPE =        1
        RELAXATION FACTOR (ONLY USED WITH PRECOND. TYPE 1) =    0.10000E+01
 PARAMETER OF POLYNOMIAL PRECOND. = 2 (2) OR IS CALCULATED :        2
                         HEAD CHANGE CRITERION FOR CLOSURE =    0.10000E-04
                     RESIDUAL CHANGE CRITERION FOR CLOSURE =    0.10000E+00
            PCG HEAD AND RESIDUAL CHANGE PRINTOUT INTERVAL =        5
     PRINTING FROM SOLVER IS LIMITED(1) OR SUPPRESSED (>1) =        0
                            STEADY-STATE DAMPING PARAMETER =    0.70000E+00
                               TRANSIENT DAMPING PARAMETER =    0.70000E+00

 HYD -- HYDROGRAPH DATA FOR BAS PACKAGE, VERSION 7, 07/14/2006
         INPUT READ FROM UNIT 36
 HYDROGRAPH VALUES WILL BE SAVED ON UNIT: 536
 HYDROGRAPH VALUES AT DRY CELLS WILL BE:  -1.00000E+07

 ARR INTYP  KLAY     XL            YL         HYDLBL
 ----------------------------------------------------------------
 HD   I      1   4.12500E+03   9.12500E+03  HDI001cr03c16       
 HD   I      1   2.62500E+03   9.12500E+03  HDI001cr03c10       
 HD   I      1   2.37500E+03   8.87500E+03  HDI001cr04c9        
 HD   I      1   6.25000E+02   7.37500E+03  HDI001cr10c2        
 HD   I      1   2.87500E+03   6.37500E+03  HDI001cr14c11       
 HD   I      1   4.37500E+03   5.87500E+03  HDI001cr16c17       
 HD   I      1   2.87500E+03   4.37500E+03  HDI001cr22c11       
 HD   I      1   4.12500E+03   4.12500E+03  HDI001cr23c16       
 HD   I      1   1.37500E+03   3.62500E+03  HDI001cr25c5        
 HD   I      1   1.87500E+03   3.12500E+03  HDI001cr27c7        
 HD   I      1   4.12500E+03   2.37500E+03  HDI001cr30c16       
 HD   I      1   2.12500E+03   1.37500E+03  HDI001cr34c8        
 HD   I      1   2.87500E+03   1.12500E+03  HDI001cr35c11       
 HD   I      1   4.12500E+03   9.12500E+03  HDI001fr03c16       
 HD   I      1   2.62500E+03   9.12500E+03  HDI001fr03c10       
 HD   I      1   2.37500E+03   8.87500E+03  HDI001fr04c9        
 HD   I      1   6.25000E+02   7.37500E+03  HDI001fr10c2        
 HD   I      1   2.87500E+03   6.37500E+03  HDI001fr14c11       
 HD   I      1   4.37500E+03   5.87500E+03  HDI001fr16c17       
 HD   I      1   2.87500E+03   4.37500E+03  HDI001fr22c11       
 HD   I      1   4.12500E+03   4.12500E+03  HDI001fr23c16       
 HD   I      1   1.37500E+03   3.62500E+03  HDI001fr25c5        
 HD   I      1   1.87500E+03   3.12500E+03  HDI001fr27c7        
 HD   I      1   4.12500E+03   2.37500E+03  HDI001fr30c16       
 HD   I      1   2.12500E+03   1.37500E+03  HDI001fr34c8        
 HD   I      1   2.87500E+03   1.12500E+03  HDI001fr35c11       
 HD   I      1   6.25000E+02   9.37500E+03  HDI001fr02c02       
 HD   I      1   3.37500E+03   9.62500E+03  HDI001fr01c13       
 HD   I      1   3.87500E+03   7.62500E+03  HDI001fr09c15       
 HD   I      1   2.62500E+03   3.62500E+03  HDI001fr25c10       
 HD   I      1   3.75000E+02   9.62500E+03  HDI001pr01c01       
 HD   I      1   6.25000E+02   9.62500E+03  HDI001pr01c02       
 HD   I      1   8.75000E+02   9.62500E+03  HDI001pr01c03       
 HD   I      1   1.12500E+03   9.62500E+03  HDI001pr01c04       
 HD   I      1   1.37500E+03   9.62500E+03  HDI001pr01c05       
 HD   I      1   1.62500E+03   9.62500E+03  HDI001pr01c06       
 HD   I      1   1.87500E+03   9.62500E+03  HDI001pr01c07       
 HD   I      1   2.12500E+03   9.62500E+03  HDI001pr01c08       
 HD   I      1   2.37500E+03   9.62500E+03  HDI001pr01c09       
 HD   I      1   2.62500E+03   9.62500E+03  HDI001pr01c10       
 HD   I      1   2.87500E+03   9.62500E+03  HDI001pr01c11       
 HD   I      1   3.12500E+03   9.62500E+03  HDI001pr01c12       
 HD   I      1   3.37500E+03   9.62500E+03  HDI001pr01c13       
 HD   I      1   3.62500E+03   9.62500E+03  HDI001pr01c14       
 HD   I      1   3.87500E+03   9.62500E+03  HDI001pr01c15       
 HD   I      1   4.12500E+03   9.62500E+03  HDI001pr01c16       
 HD   I      1   4.37500E+03   9.62500E+03  HDI001pr01c17       
 HD   I      1   4.62500E+03   9.62500E+03  HDI001pr01c18       
 HD   I      1   3.75000E+02   9.37500E+03  HDI001pr02c01       
 HD   I      1   6.25000E+02   9.37500E+03  HDI001pr02c02       
 HD   I      1   8.75000E+02   9.37500E+03  HDI001pr02c03       
 HD   I      1   1.12500E+03   9.37500E+03  HDI001pr02c04       
 HD   I      1   1.37500E+03   9.37500E+03  HDI001pr02c05       
 HD   I      1   1.62500E+03   9.37500E+03  HDI001pr02c06       
 HD   I      1   1.87500E+03   9.37500E+03  HDI001pr02c07       
 HD   I      1   2.12500E+03   9.37500E+03  HDI001pr02c08       
 HD   I      1   2.37500E+03   9.37500E+03  HDI001pr02c09       
 HD   I      1   2.62500E+03   9.37500E+03  HDI001pr02c10       
 HD   I      1   2.87500E+03   9.37500E+03  HDI001pr02c11       
 HD   I      1   3.12500E+03   9.37500E+03  HDI001pr02c12       
 HD   I      1   3.37500E+03   9.37500E+03  HDI001pr02c13       
 HD   I      1   3.62500E+03   9.37500E+03  HDI001pr02c14       
 HD   I      1   3.87500E+03   9.37500E+03  HDI001pr02c15       
 HD   I      1   4.12500E+03   9.37500E+03  HDI001pr02c16       
 HD   I      1   4.37500E+03   9.37500E+03  HDI001pr02c17       
 HD   I      1   4.62500E+03   9.37500E+03  HDI001pr02c18       
 HD   I      1   3.75000E+02   9.12500E+03  HDI001pr03c01       
 HD   I      1   6.25000E+02   9.12500E+03  HDI001pr03c02       
 HD   I      1   8.75000E+02   9.12500E+03  HDI001pr03c03       
 HD   I      1   1.12500E+03   9.12500E+03  HDI001pr03c04       
 HD   I      1   1.37500E+03   9.12500E+03  HDI001pr03c05       
 HD   I      1   1.62500E+03   9.12500E+03  HDI001pr03c06       
 HD   I      1   1.87500E+03   9.12500E+03  HDI001pr03c07       
 HD   I      1   2.12500E+03   9.12500E+03  HDI001pr03c08       
 HD   I      1   2.37500E+03   9.12500E+03  HDI001pr03c09       
 HD   I      1   2.62500E+03   9.12500E+03  HDI001pr03c10       
 HD   I      1   2.87500E+03   9.12500E+03  HDI001pr03c11       
 HD   I      1   3.12500E+03   9.12500E+03  HDI001pr03c12       
 HD   I      1   3.37500E+03   9.12500E+03  HDI001pr03c13       
 HD   I      1   3.62500E+03   9.12500E+03  HDI001pr03c14       
 HD   I      1   3.87500E+03   9.12500E+03  HDI001pr03c15       
 HD   I      1   4.12500E+03   9.12500E+03  HDI001pr03c16       
 HD   I      1   4.37500E+03   9.12500E+03  HDI001pr03c17       
 HD   I      1   4.62500E+03   9.12500E+03  HDI001pr03c18       
 HD   I      1   3.75000E+02   8.87500E+03  HDI001pr04c01       
 HD   I      1   6.25000E+02   8.87500E+03  HDI001pr04c02       
 HD   I      1   8.75000E+02   8.87500E+03  HDI001pr04c03       
 HD   I      1   1.12500E+03   8.87500E+03  HDI001pr04c04       
 HD   I      1   1.37500E+03   8.87500E+03  HDI001pr04c05       
 HD   I      1   1.62500E+03   8.87500E+03  HDI001pr04c06       
 HD   I      1   1.87500E+03   8.87500E+03  HDI001pr04c07       
 HD   I      1   2.12500E+03   8.87500E+03  HDI001pr04c08       
 HD   I      1   2.37500E+03   8.87500E+03  HDI001pr04c09       
 HD   I      1   2.62500E+03   8.87500E+03  HDI001pr04c10       
 HD   I      1   2.87500E+03   8.87500E+03  HDI001pr04c11       
 HD   I      1   3.12500E+03   8.87500E+03  HDI001pr04c12       
 HD   I      1   3.37500E+03   8.87500E+03  HDI001pr04c13       
 HD   I      1   3.62500E+03   8.87500E+03  HDI001pr04c14       
 HD   I      1   3.87500E+03   8.87500E+03  HDI001pr04c15       
 HD   I      1   4.12500E+03   8.87500E+03  HDI001pr04c16       
 HD   I      1   4.37500E+03   8.87500E+03  HDI001pr04c17       
 HD   I      1   4.62500E+03   8.87500E+03  HDI001pr04c18       
 HD   I      1   3.75000E+02   8.62500E+03  HDI001pr05c01       
 HD   I      1   6.25000E+02   8.62500E+03  HDI001pr05c02       
 HD   I      1   8.75000E+02   8.62500E+03  HDI001pr05c03       
 HD   I      1   1.12500E+03   8.62500E+03  HDI001pr05c04       
 HD   I      1   1.37500E+03   8.62500E+03  HDI001pr05c05       
 HD   I      1   1.62500E+03   8.62500E+03  HDI001pr05c06       
 HD   I      1   1.87500E+03   8.62500E+03  HDI001pr05c07       
 HD   I      1   2.12500E+03   8.62500E+03  HDI001pr05c08       
 HD   I      1   2.37500E+03   8.62500E+03  HDI001pr05c09       
 HD   I      1   2.62500E+03   8.62500E+03  HDI001pr05c10       
 HD   I      1   2.87500E+03   8.62500E+03  HDI001pr05c11       
 HD   I      1   3.12500E+03   8.62500E+03  HDI001pr05c12       
 HD   I      1   3.37500E+03   8.62500E+03  HDI001pr05c13       
 HD   I      1   3.62500E+03   8.62500E+03  HDI001pr05c14       
 HD   I      1   3.87500E+03   8.62500E+03  HDI001pr05c15       
 HD   I      1   4.12500E+03   8.62500E+03  HDI001pr05c16       
 HD   I      1   4.37500E+03   8.62500E+03  HDI001pr05c17       
 HD   I      1   4.62500E+03   8.62500E+03  HDI001pr05c18       
 HD   I      1   3.75000E+02   8.37500E+03  HDI001pr06c01       
 HD   I      1   6.25000E+02   8.37500E+03  HDI001pr06c02       
 HD   I      1   8.75000E+02   8.37500E+03  HDI001pr06c03       
 HD   I      1   1.12500E+03   8.37500E+03  HDI001pr06c04       
 HD   I      1   1.37500E+03   8.37500E+03  HDI001pr06c05       
 HD   I      1   1.62500E+03   8.37500E+03  HDI001pr06c06       
 HD   I      1   1.87500E+03   8.37500E+03  HDI001pr06c07       
 HD   I      1   2.12500E+03   8.37500E+03  HDI001pr06c08       
 HD   I      1   2.37500E+03   8.37500E+03  HDI001pr06c09       
 HD   I      1   2.62500E+03   8.37500E+03  HDI001pr06c10       
 HD   I      1   2.87500E+03   8.37500E+03  HDI001pr06c11       
 HD   I      1   3.12500E+03   8.37500E+03  HDI001pr06c12       
 HD   I      1   3.37500E+03   8.37500E+03  HDI001pr06c13       
 HD   I      1   3.62500E+03   8.37500E+03  HDI001pr06c14       
 HD   I      1   3.87500E+03   8.37500E+03  HDI001pr06c15       
 HD   I      1   4.12500E+03   8.37500E+03  HDI001pr06c16       
 HD   I      1   4.37500E+03   8.37500E+03  HDI001pr06c17       
 HD   I      1   4.62500E+03   8.37500E+03  HDI001pr06c18       
 HD   I      1   3.75000E+02   8.12500E+03  HDI001pr07c01       
 HD   I      1   6.25000E+02   8.12500E+03  HDI001pr07c02       
 HD   I      1   8.75000E+02   8.12500E+03  HDI001pr07c03       
 HD   I      1   1.12500E+03   8.12500E+03  HDI001pr07c04       
 HD   I      1   1.37500E+03   8.12500E+03  HDI001pr07c05       
 HD   I      1   1.62500E+03   8.12500E+03  HDI001pr07c06       
 HD   I      1   1.87500E+03   8.12500E+03  HDI001pr07c07       
 HD   I      1   2.12500E+03   8.12500E+03  HDI001pr07c08       
 HD   I      1   2.37500E+03   8.12500E+03  HDI001pr07c09       
 HD   I      1   2.62500E+03   8.12500E+03  HDI001pr07c10       
 HD   I      1   2.87500E+03   8.12500E+03  HDI001pr07c11       
 HD   I      1   3.12500E+03   8.12500E+03  HDI001pr07c12       
 HD   I      1   3.37500E+03   8.12500E+03  HDI001pr07c13       
 HD   I      1   3.62500E+03   8.12500E+03  HDI001pr07c14       
 HD   I      1   3.87500E+03   8.12500E+03  HDI001pr07c15       
 HD   I      1   4.12500E+03   8.12500E+03  HDI001pr07c16       
 HD   I      1   4.37500E+03   8.12500E+03  HDI001pr07c17       
 HD   I      1   4.62500E+03   8.12500E+03  HDI001pr07c18       
 HD   I      1   3.75000E+02   7.87500E+03  HDI001pr08c01       
 HD   I      1   6.25000E+02   7.87500E+03  HDI001pr08c02       
 HD   I      1   8.75000E+02   7.87500E+03  HDI001pr08c03       
 HD   I      1   1.87500E+03   7.87500E+03  HDI001pr08c07       
 HD   I      1   2.12500E+03   7.87500E+03  HDI001pr08c08       
 HD   I      1   2.37500E+03   7.87500E+03  HDI001pr08c09       
 HD   I      1   2.62500E+03   7.87500E+03  HDI001pr08c10       
 HD   I      1   2.87500E+03   7.87500E+03  HDI001pr08c11       
 HD   I      1   3.12500E+03   7.87500E+03  HDI001pr08c12       
 HD   I      1   3.37500E+03   7.87500E+03  HDI001pr08c13       
 HD   I      1   3.62500E+03   7.87500E+03  HDI001pr08c14       
 HD   I      1   3.87500E+03   7.87500E+03  HDI001pr08c15       
 HD   I      1   4.12500E+03   7.87500E+03  HDI001pr08c16       
 HD   I      1   4.37500E+03   7.87500E+03  HDI001pr08c17       
 HD   I      1   4.62500E+03   7.87500E+03  HDI001pr08c18       
 HD   I      1   3.75000E+02   7.62500E+03  HDI001pr09c01       
 HD   I      1   6.25000E+02   7.62500E+03  HDI001pr09c02       
 HD   I      1   8.75000E+02   7.62500E+03  HDI001pr09c03       
 HD   I      1   2.12500E+03   7.62500E+03  HDI001pr09c08       
 HD   I      1   2.37500E+03   7.62500E+03  HDI001pr09c09       
 HD   I      1   2.62500E+03   7.62500E+03  HDI001pr09c10       
 HD   I      1   2.87500E+03   7.62500E+03  HDI001pr09c11       
 HD   I      1   3.12500E+03   7.62500E+03  HDI001pr09c12       
 HD   I      1   3.37500E+03   7.62500E+03  HDI001pr09c13       
 HD   I      1   3.62500E+03   7.62500E+03  HDI001pr09c14       
 HD   I      1   3.87500E+03   7.62500E+03  HDI001pr09c15       
 HD   I      1   4.12500E+03   7.62500E+03  HDI001pr09c16       
 HD   I      1   4.37500E+03   7.62500E+03  HDI001pr09c17       
 HD   I      1   4.62500E+03   7.62500E+03  HDI001pr09c18       
 HD   I      1   3.75000E+02   7.37500E+03  HDI001pr10c01       
 HD   I      1   6.25000E+02   7.37500E+03  HDI001pr10c02       
 HD   I      1   8.75000E+02   7.37500E+03  HDI001pr10c03       
 HD   I      1   2.12500E+03   7.37500E+03  HDI001pr10c08       
 HD   I      1   2.37500E+03   7.37500E+03  HDI001pr10c09       
 HD   I      1   2.62500E+03   7.37500E+03  HDI001pr10c10       
 HD   I      1   2.87500E+03   7.37500E+03  HDI001pr10c11       
 HD   I      1   3.12500E+03   7.37500E+03  HDI001pr10c12       
 HD   I      1   3.37500E+03   7.37500E+03  HDI001pr10c13       
 HD   I      1   3.62500E+03   7.37500E+03  HDI001pr10c14       
 HD   I      1   3.87500E+03   7.37500E+03  HDI001pr10c15       
 HD   I      1   4.12500E+03   7.37500E+03  HDI001pr10c16       
 HD   I      1   4.37500E+03   7.37500E+03  HDI001pr10c17       
 HD   I      1   4.62500E+03   7.37500E+03  HDI001pr10c18       
 HD   I      1   3.75000E+02   7.12500E+03  HDI001pr11c01       
 HD   I      1   6.25000E+02   7.12500E+03  HDI001pr11c02       
 HD   I      1   8.75000E+02   7.12500E+03  HDI001pr11c03       
 HD   I      1   2.12500E+03   7.12500E+03  HDI001pr11c08       
 HD   I      1   2.37500E+03   7.12500E+03  HDI001pr11c09       
 HD   I      1   2.62500E+03   7.12500E+03  HDI001pr11c10       
 HD   I      1   2.87500E+03   7.12500E+03  HDI001pr11c11       
 HD   I      1   3.12500E+03   7.12500E+03  HDI001pr11c12       
 HD   I      1   3.37500E+03   7.12500E+03  HDI001pr11c13       
 HD   I      1   3.62500E+03   7.12500E+03  HDI001pr11c14       
 HD   I      1   3.87500E+03   7.12500E+03  HDI001pr11c15       
 HD   I      1   4.12500E+03   7.12500E+03  HDI001pr11c16       
 HD   I      1   4.37500E+03   7.12500E+03  HDI001pr11c17       
 HD   I      1   4.62500E+03   7.12500E+03  HDI001pr11c18       
 HD   I      1   3.75000E+02   6.87500E+03  HDI001pr12c01       
 HD   I      1   6.25000E+02   6.87500E+03  HDI001pr12c02       
 HD   I      1   8.75000E+02   6.87500E+03  HDI001pr12c03       
 HD   I      1   2.12500E+03   6.87500E+03  HDI001pr12c08       
 HD   I      1   2.37500E+03   6.87500E+03  HDI001pr12c09       
 HD   I      1   2.62500E+03   6.87500E+03  HDI001pr12c10       
 HD   I      1   2.87500E+03   6.87500E+03  HDI001pr12c11       
 HD   I      1   3.12500E+03   6.87500E+03  HDI001pr12c12       
 HD   I      1   3.37500E+03   6.87500E+03  HDI001pr12c13       
 HD   I      1   3.62500E+03   6.87500E+03  HDI001pr12c14       
 HD   I      1   3.87500E+03   6.87500E+03  HDI001pr12c15       
 HD   I      1   4.12500E+03   6.87500E+03  HDI001pr12c16       
 HD   I      1   4.37500E+03   6.87500E+03  HDI001pr12c17       
 HD   I      1   4.62500E+03   6.87500E+03  HDI001pr12c18       
 HD   I      1   3.75000E+02   6.62500E+03  HDI001pr13c01       
 HD   I      1   6.25000E+02   6.62500E+03  HDI001pr13c02       
 HD   I      1   8.75000E+02   6.62500E+03  HDI001pr13c03       
 HD   I      1   2.12500E+03   6.62500E+03  HDI001pr13c08       
 HD   I      1   2.37500E+03   6.62500E+03  HDI001pr13c09       
 HD   I      1   2.62500E+03   6.62500E+03  HDI001pr13c10       
 HD   I      1   2.87500E+03   6.62500E+03  HDI001pr13c11       
 HD   I      1   3.12500E+03   6.62500E+03  HDI001pr13c12       
 HD   I      1   3.37500E+03   6.62500E+03  HDI001pr13c13       
 HD   I      1   3.62500E+03   6.62500E+03  HDI001pr13c14       
 HD   I      1   3.87500E+03   6.62500E+03  HDI001pr13c15       
 HD   I      1   4.12500E+03   6.62500E+03  HDI001pr13c16       
 HD   I      1   4.37500E+03   6.62500E+03  HDI001pr13c17       
 HD   I      1   4.62500E+03   6.62500E+03  HDI001pr13c18       
 HD   I      1   3.75000E+02   6.37500E+03  HDI001pr14c01       
 HD   I      1   6.25000E+02   6.37500E+03  HDI001pr14c02       
 HD   I      1   8.75000E+02   6.37500E+03  HDI001pr14c03       
 HD   I      1   2.12500E+03   6.37500E+03  HDI001pr14c08       
 HD   I      1   2.37500E+03   6.37500E+03  HDI001pr14c09       
 HD   I      1   2.62500E+03   6.37500E+03  HDI001pr14c10       
 HD   I      1   2.87500E+03   6.37500E+03  HDI001pr14c11       
 HD   I      1   3.12500E+03   6.37500E+03  HDI001pr14c12       
 HD   I      1   3.37500E+03   6.37500E+03  HDI001pr14c13       
 HD   I      1   3.62500E+03   6.37500E+03  HDI001pr14c14       
 HD   I      1   3.87500E+03   6.37500E+03  HDI001pr14c15       
 HD   I      1   4.12500E+03   6.37500E+03  HDI001pr14c16       
 HD   I      1   4.37500E+03   6.37500E+03  HDI001pr14c17       
 HD   I      1   4.62500E+03   6.37500E+03  HDI001pr14c18       
 HD   I      1   3.75000E+02   6.12500E+03  HDI001pr15c01       
 HD   I      1   6.25000E+02   6.12500E+03  HDI001pr15c02       
 HD   I      1   8.75000E+02   6.12500E+03  HDI001pr15c03       
 HD   I      1   2.12500E+03   6.12500E+03  HDI001pr15c08       
 HD   I      1   2.37500E+03   6.12500E+03  HDI001pr15c09       
 HD   I      1   2.62500E+03   6.12500E+03  HDI001pr15c10       
 HD   I      1   2.87500E+03   6.12500E+03  HDI001pr15c11       
 HD   I      1   3.12500E+03   6.12500E+03  HDI001pr15c12       
 HD   I      1   3.37500E+03   6.12500E+03  HDI001pr15c13       
 HD   I      1   3.62500E+03   6.12500E+03  HDI001pr15c14       
 HD   I      1   3.87500E+03   6.12500E+03  HDI001pr15c15       
 HD   I      1   4.12500E+03   6.12500E+03  HDI001pr15c16       
 HD   I      1   4.37500E+03   6.12500E+03  HDI001pr15c17       
 HD   I      1   4.62500E+03   6.12500E+03  HDI001pr15c18       
 HD   I      1   3.75000E+02   5.87500E+03  HDI001pr16c01       
 HD   I      1   6.25000E+02   5.87500E+03  HDI001pr16c02       
 HD   I      1   8.75000E+02   5.87500E+03  HDI001pr16c03       
 HD   I      1   2.12500E+03   5.87500E+03  HDI001pr16c08       
 HD   I      1   2.37500E+03   5.87500E+03  HDI001pr16c09       
 HD   I      1   2.62500E+03   5.87500E+03  HDI001pr16c10       
 HD   I      1   2.87500E+03   5.87500E+03  HDI001pr16c11       
 HD   I      1   3.12500E+03   5.87500E+03  HDI001pr16c12       
 HD   I      1   3.37500E+03   5.87500E+03  HDI001pr16c13       
 HD   I      1   3.62500E+03   5.87500E+03  HDI001pr16c14       
 HD   I      1   3.87500E+03   5.87500E+03  HDI001pr16c15       
 HD   I      1   4.12500E+03   5.87500E+03  HDI001pr16c16       
 HD   I      1   4.37500E+03   5.87500E+03  HDI001pr16c17       
 HD   I      1   4.62500E+03   5.87500E+03  HDI001pr16c18       
 HD   I      1   3.75000E+02   5.62500E+03  HDI001pr17c01       
 HD   I      1   6.25000E+02   5.62500E+03  HDI001pr17c02       
 HD   I      1   8.75000E+02   5.62500E+03  HDI001pr17c03       
 HD   I      1   2.12500E+03   5.62500E+03  HDI001pr17c08       
 HD   I      1   2.37500E+03   5.62500E+03  HDI001pr17c09       
 HD   I      1   2.62500E+03   5.62500E+03  HDI001pr17c10       
 HD   I      1   2.87500E+03   5.62500E+03  HDI001pr17c11       
 HD   I      1   3.12500E+03   5.62500E+03  HDI001pr17c12       
 HD   I      1   3.37500E+03   5.62500E+03  HDI001pr17c13       
 HD   I      1   3.62500E+03   5.62500E+03  HDI001pr17c14       
 HD   I      1   3.87500E+03   5.62500E+03  HDI001pr17c15       
 HD   I      1   4.12500E+03   5.62500E+03  HDI001pr17c16       
 HD   I      1   4.37500E+03   5.62500E+03  HDI001pr17c17       
 HD   I      1   4.62500E+03   5.62500E+03  HDI001pr17c18       
 HD   I      1   3.75000E+02   5.37500E+03  HDI001pr18c01       
 HD   I      1   6.25000E+02   5.37500E+03  HDI001pr18c02       
 HD   I      1   8.75000E+02   5.37500E+03  HDI001pr18c03       
 HD   I      1   2.12500E+03   5.37500E+03  HDI001pr18c08       
 HD   I      1   2.37500E+03   5.37500E+03  HDI001pr18c09       
 HD   I      1   2.62500E+03   5.37500E+03  HDI001pr18c10       
 HD   I      1   2.87500E+03   5.37500E+03  HDI001pr18c11       
 HD   I      1   3.12500E+03   5.37500E+03  HDI001pr18c12       
 HD   I      1   3.37500E+03   5.37500E+03  HDI001pr18c13       
 HD   I      1   3.62500E+03   5.37500E+03  HDI001pr18c14       
 HD   I      1   3.87500E+03   5.37500E+03  HDI001pr18c15       
 HD   I      1   4.12500E+03   5.37500E+03  HDI001pr18c16       
 HD   I      1   4.37500E+03   5.37500E+03  HDI001pr18c17       
 HD   I      1   4.62500E+03   5.37500E+03  HDI001pr18c18       
 HD   I      1   3.75000E+02   5.12500E+03  HDI001pr19c01       
 HD   I      1   6.25000E+02   5.12500E+03  HDI001pr19c02       
 HD   I      1   8.75000E+02   5.12500E+03  HDI001pr19c03       
 HD   I      1   2.12500E+03   5.12500E+03  HDI001pr19c08       
 HD   I      1   2.37500E+03   5.12500E+03  HDI001pr19c09       
 HD   I      1   2.62500E+03   5.12500E+03  HDI001pr19c10       
 HD   I      1   2.87500E+03   5.12500E+03  HDI001pr19c11       
 HD   I      1   3.12500E+03   5.12500E+03  HDI001pr19c12       
 HD   I      1   3.37500E+03   5.12500E+03  HDI001pr19c13       
 HD   I      1   3.62500E+03   5.12500E+03  HDI001pr19c14       
 HD   I      1   3.87500E+03   5.12500E+03  HDI001pr19c15       
 HD   I      1   4.12500E+03   5.12500E+03  HDI001pr19c16       
 HD   I      1   4.37500E+03   5.12500E+03  HDI001pr19c17       
 HD   I      1   4.62500E+03   5.12500E+03  HDI001pr19c18       
 HD   I      1   3.75000E+02   4.87500E+03  HDI001pr20c01       
 HD   I      1   6.25000E+02   4.87500E+03  HDI001pr20c02       
 HD   I      1   8.75000E+02   4.87500E+03  HDI001pr20c03       
 HD   I      1   2.12500E+03   4.87500E+03  HDI001pr20c08       
 HD   I      1   2.37500E+03   4.87500E+03  HDI001pr20c09       
 HD   I      1   2.62500E+03   4.87500E+03  HDI001pr20c10       
 HD   I      1   2.87500E+03   4.87500E+03  HDI001pr20c11       
 HD   I      1   3.12500E+03   4.87500E+03  HDI001pr20c12       
 HD   I      1   3.37500E+03   4.87500E+03  HDI001pr20c13       
 HD   I      1   3.62500E+03   4.87500E+03  HDI001pr20c14       
 HD   I      1   3.87500E+03   4.87500E+03  HDI001pr20c15       
 HD   I      1   4.12500E+03   4.87500E+03  HDI001pr20c16       
 HD   I      1   4.37500E+03   4.87500E+03  HDI001pr20c17       
 HD   I      1   4.62500E+03   4.87500E+03  HDI001pr20c18       
 HD   I      1   3.75000E+02   4.62500E+03  HDI001pr21c01       
 HD   I      1   6.25000E+02   4.62500E+03  HDI001pr21c02       
 HD   I      1   8.75000E+02   4.62500E+03  HDI001pr21c03       
 HD   I      1   1.62500E+03   4.62500E+03  HDI001pr21c06       
 HD   I      1   1.87500E+03   4.62500E+03  HDI001pr21c07       
 HD   I      1   2.12500E+03   4.62500E+03  HDI001pr21c08       
 HD   I      1   2.37500E+03   4.62500E+03  HDI001pr21c09       
 HD   I      1   2.62500E+03   4.62500E+03  HDI001pr21c10       
 HD   I      1   2.87500E+03   4.62500E+03  HDI001pr21c11       
 HD   I      1   3.12500E+03   4.62500E+03  HDI001pr21c12       
 HD   I      1   3.37500E+03   4.62500E+03  HDI001pr21c13       
 HD   I      1   3.62500E+03   4.62500E+03  HDI001pr21c14       
 HD   I      1   3.87500E+03   4.62500E+03  HDI001pr21c15       
 HD   I      1   4.12500E+03   4.62500E+03  HDI001pr21c16       
 HD   I      1   4.37500E+03   4.62500E+03  HDI001pr21c17       
 HD   I      1   4.62500E+03   4.62500E+03  HDI001pr21c18       
 HD   I      1   3.75000E+02   4.37500E+03  HDI001pr22c01       
 HD   I      1   6.25000E+02   4.37500E+03  HDI001pr22c02       
 HD   I      1   8.75000E+02   4.37500E+03  HDI001pr22c03       
 HD   I      1   1.12500E+03   4.37500E+03  HDI001pr22c04       
 HD   I      1   1.62500E+03   4.37500E+03  HDI001pr22c06       
 HD   I      1   1.87500E+03   4.37500E+03  HDI001pr22c07       
 HD   I      1   2.12500E+03   4.37500E+03  HDI001pr22c08       
 HD   I      1   2.37500E+03   4.37500E+03  HDI001pr22c09       
 HD   I      1   2.62500E+03   4.37500E+03  HDI001pr22c10       
 HD   I      1   2.87500E+03   4.37500E+03  HDI001pr22c11       
 HD   I      1   3.12500E+03   4.37500E+03  HDI001pr22c12       
 HD   I      1   3.37500E+03   4.37500E+03  HDI001pr22c13       
 HD   I      1   3.62500E+03   4.37500E+03  HDI001pr22c14       
 HD   I      1   3.87500E+03   4.37500E+03  HDI001pr22c15       
 HD   I      1   4.12500E+03   4.37500E+03  HDI001pr22c16       
 HD   I      1   4.37500E+03   4.37500E+03  HDI001pr22c17       
 HD   I      1   4.62500E+03   4.37500E+03  HDI001pr22c18       
 HD   I      1   3.75000E+02   4.12500E+03  HDI001pr23c01       
 HD   I      1   6.25000E+02   4.12500E+03  HDI001pr23c02       
 HD   I      1   8.75000E+02   4.12500E+03  HDI001pr23c03       
 HD   I      1   1.12500E+03   4.12500E+03  HDI001pr23c04       
 HD   I      1   1.37500E+03   4.12500E+03  HDI001pr23c05       
 HD   I      1   1.62500E+03   4.12500E+03  HDI001pr23c06       
 HD   I      1   1.87500E+03   4.12500E+03  HDI001pr23c07       
 HD   I      1   2.12500E+03   4.12500E+03  HDI001pr23c08       
 HD   I      1   2.37500E+03   4.12500E+03  HDI001pr23c09       
 HD   I      1   2.62500E+03   4.12500E+03  HDI001pr23c10       
 HD   I      1   2.87500E+03   4.12500E+03  HDI001pr23c11       
 HD   I      1   3.12500E+03   4.12500E+03  HDI001pr23c12       
 HD   I      1   3.37500E+03   4.12500E+03  HDI001pr23c13       
 HD   I      1   3.62500E+03   4.12500E+03  HDI001pr23c14       
 HD   I      1   3.87500E+03   4.12500E+03  HDI001pr23c15       
 HD   I      1   4.12500E+03   4.12500E+03  HDI001pr23c16       
 HD   I      1   4.37500E+03   4.12500E+03  HDI001pr23c17       
 HD   I      1   4.62500E+03   4.12500E+03  HDI001pr23c18       
 HD   I      1   3.75000E+02   3.87500E+03  HDI001pr24c01       
 HD   I      1   6.25000E+02   3.87500E+03  HDI001pr24c02       
 HD   I      1   8.75000E+02   3.87500E+03  HDI001pr24c03       
 HD   I      1   1.12500E+03   3.87500E+03  HDI001pr24c04       
 HD   I      1   1.37500E+03   3.87500E+03  HDI001pr24c05       
 HD   I      1   1.62500E+03   3.87500E+03  HDI001pr24c06       
 HD   I      1   1.87500E+03   3.87500E+03  HDI001pr24c07       
 HD   I      1   2.12500E+03   3.87500E+03  HDI001pr24c08       
 HD   I      1   2.37500E+03   3.87500E+03  HDI001pr24c09       
 HD   I      1   2.62500E+03   3.87500E+03  HDI001pr24c10       
 HD   I      1   2.87500E+03   3.87500E+03  HDI001pr24c11       
 HD   I      1   3.12500E+03   3.87500E+03  HDI001pr24c12       
 HD   I      1   3.37500E+03   3.87500E+03  HDI001pr24c13       
 HD   I      1   3.62500E+03   3.87500E+03  HDI001pr24c14       
 HD   I      1   3.87500E+03   3.87500E+03  HDI001pr24c15       
 HD   I      1   4.12500E+03   3.87500E+03  HDI001pr24c16       
 HD   I      1   4.37500E+03   3.87500E+03  HDI001pr24c17       
 HD   I      1   4.62500E+03   3.87500E+03  HDI001pr24c18       
 HD   I      1   3.75000E+02   3.62500E+03  HDI001pr25c01       
 HD   I      1   6.25000E+02   3.62500E+03  HDI001pr25c02       
 HD   I      1   8.75000E+02   3.62500E+03  HDI001pr25c03       
 HD   I      1   1.12500E+03   3.62500E+03  HDI001pr25c04       
 HD   I      1   1.37500E+03   3.62500E+03  HDI001pr25c05       
 HD   I      1   1.62500E+03   3.62500E+03  HDI001pr25c06       
 HD   I      1   1.87500E+03   3.62500E+03  HDI001pr25c07       
 HD   I      1   2.12500E+03   3.62500E+03  HDI001pr25c08       
 HD   I      1   2.37500E+03   3.62500E+03  HDI001pr25c09       
 HD   I      1   2.62500E+03   3.62500E+03  HDI001pr25c10       
 HD   I      1   2.87500E+03   3.62500E+03  HDI001pr25c11       
 HD   I      1   3.12500E+03   3.62500E+03  HDI001pr25c12       
 HD   I      1   3.37500E+03   3.62500E+03  HDI001pr25c13       
 HD   I      1   3.62500E+03   3.62500E+03  HDI001pr25c14       
 HD   I      1   3.87500E+03   3.62500E+03  HDI001pr25c15       
 HD   I      1   4.12500E+03   3.62500E+03  HDI001pr25c16       
 HD   I      1   4.37500E+03   3.62500E+03  HDI001pr25c17       
 HD   I      1   4.62500E+03   3.62500E+03  HDI001pr25c18       
 HD   I      1   3.75000E+02   3.37500E+03  HDI001pr26c01       
 HD   I      1   6.25000E+02   3.37500E+03  HDI001pr26c02       
 HD   I      1   8.75000E+02   3.37500E+03  HDI001pr26c03       
 HD   I      1   1.12500E+03   3.37500E+03  HDI001pr26c04       
 HD   I      1   1.37500E+03   3.37500E+03  HDI001pr26c05       
 HD   I      1   1.62500E+03   3.37500E+03  HDI001pr26c06       
 HD   I      1   1.87500E+03   3.37500E+03  HDI001pr26c07       
 HD   I      1   2.12500E+03   3.37500E+03  HDI001pr26c08       
 HD   I      1   2.37500E+03   3.37500E+03  HDI001pr26c09       
 HD   I      1   2.62500E+03   3.37500E+03  HDI001pr26c10       
 HD   I      1   2.87500E+03   3.37500E+03  HDI001pr26c11       
 HD   I      1   3.12500E+03   3.37500E+03  HDI001pr26c12       
 HD   I      1   3.37500E+03   3.37500E+03  HDI001pr26c13       
 HD   I      1   3.62500E+03   3.37500E+03  HDI001pr26c14       
 HD   I      1   3.87500E+03   3.37500E+03  HDI001pr26c15       
 HD   I      1   4.12500E+03   3.37500E+03  HDI001pr26c16       
 HD   I      1   4.37500E+03   3.37500E+03  HDI001pr26c17       
 HD   I      1   4.62500E+03   3.37500E+03  HDI001pr26c18       
 HD   I      1   3.75000E+02   3.12500E+03  HDI001pr27c01       
 HD   I      1   6.25000E+02   3.12500E+03  HDI001pr27c02       
 HD   I      1   8.75000E+02   3.12500E+03  HDI001pr27c03       
 HD   I      1   1.12500E+03   3.12500E+03  HDI001pr27c04       
 HD   I      1   1.37500E+03   3.12500E+03  HDI001pr27c05       
 HD   I      1   1.62500E+03   3.12500E+03  HDI001pr27c06       
 HD   I      1   1.87500E+03   3.12500E+03  HDI001pr27c07       
 HD   I      1   2.12500E+03   3.12500E+03  HDI001pr27c08       
 HD   I      1   2.37500E+03   3.12500E+03  HDI001pr27c09       
 HD   I      1   2.62500E+03   3.12500E+03  HDI001pr27c10       
 HD   I      1   2.87500E+03   3.12500E+03  HDI001pr27c11       
 HD   I      1   3.12500E+03   3.12500E+03  HDI001pr27c12       
 HD   I      1   3.37500E+03   3.12500E+03  HDI001pr27c13       
 HD   I      1   3.62500E+03   3.12500E+03  HDI001pr27c14       
 HD   I      1   3.87500E+03   3.12500E+03  HDI001pr27c15       
 HD   I      1   4.12500E+03   3.12500E+03  HDI001pr27c16       
 HD   I      1   4.37500E+03   3.12500E+03  HDI001pr27c17       
 HD   I      1   4.62500E+03   3.12500E+03  HDI001pr27c18       
 HD   I      1   3.75000E+02   2.87500E+03  HDI001pr28c01       
 HD   I      1   6.25000E+02   2.87500E+03  HDI001pr28c02       
 HD   I      1   8.75000E+02   2.87500E+03  HDI001pr28c03       
 HD   I      1   1.12500E+03   2.87500E+03  HDI001pr28c04       
 HD   I      1   1.37500E+03   2.87500E+03  HDI001pr28c05       
 HD   I      1   1.62500E+03   2.87500E+03  HDI001pr28c06       
 HD   I      1   1.87500E+03   2.87500E+03  HDI001pr28c07       
 HD   I      1   2.12500E+03   2.87500E+03  HDI001pr28c08       
 HD   I      1   2.37500E+03   2.87500E+03  HDI001pr28c09       
 HD   I      1   2.62500E+03   2.87500E+03  HDI001pr28c10       
 HD   I      1   2.87500E+03   2.87500E+03  HDI001pr28c11       
 HD   I      1   3.12500E+03   2.87500E+03  HDI001pr28c12       
 HD   I      1   3.37500E+03   2.87500E+03  HDI001pr28c13       
 HD   I      1   3.62500E+03   2.87500E+03  HDI001pr28c14       
 HD   I      1   3.87500E+03   2.87500E+03  HDI001pr28c15       
 HD   I      1   4.12500E+03   2.87500E+03  HDI001pr28c16       
 HD   I      1   4.37500E+03   2.87500E+03  HDI001pr28c17       
 HD   I      1   4.62500E+03   2.87500E+03  HDI001pr28c18       
 HD   I      1   3.75000E+02   2.62500E+03  HDI001pr29c01       
 HD   I      1   6.25000E+02   2.62500E+03  HDI001pr29c02       
 HD   I      1   8.75000E+02   2.62500E+03  HDI001pr29c03       
 HD   I      1   1.12500E+03   2.62500E+03  HDI001pr29c04       
 HD   I      1   1.37500E+03   2.62500E+03  HDI001pr29c05       
 HD   I      1   1.62500E+03   2.62500E+03  HDI001pr29c06       
 HD   I      1   1.87500E+03   2.62500E+03  HDI001pr29c07       
 HD   I      1   2.12500E+03   2.62500E+03  HDI001pr29c08       
 HD   I      1   2.37500E+03   2.62500E+03  HDI001pr29c09       
 HD   I      1   2.62500E+03   2.62500E+03  HDI001pr29c10       
 HD   I      1   2.87500E+03   2.62500E+03  HDI001pr29c11       
 HD   I      1   3.12500E+03   2.62500E+03  HDI001pr29c12       
 HD   I      1   3.37500E+03   2.62500E+03  HDI001pr29c13       
 HD   I      1   3.62500E+03   2.62500E+03  HDI001pr29c14       
 HD   I      1   3.87500E+03   2.62500E+03  HDI001pr29c15       
 HD   I      1   4.12500E+03   2.62500E+03  HDI001pr29c16       
 HD   I      1   4.37500E+03   2.62500E+03  HDI001pr29c17       
 HD   I      1   4.62500E+03   2.62500E+03  HDI001pr29c18       
 HD   I      1   3.75000E+02   2.37500E+03  HDI001pr30c01       
 HD   I      1   6.25000E+02   2.37500E+03  HDI001pr30c02       
 HD   I      1   8.75000E+02   2.37500E+03  HDI001pr30c03       
 HD   I      1   1.12500E+03   2.37500E+03  HDI001pr30c04       
 HD   I      1   1.37500E+03   2.37500E+03  HDI001pr30c05       
 HD   I      1   1.62500E+03   2.37500E+03  HDI001pr30c06       
 HD   I      1   1.87500E+03   2.37500E+03  HDI001pr30c07       
 HD   I      1   2.12500E+03   2.37500E+03  HDI001pr30c08       
 HD   I      1   2.37500E+03   2.37500E+03  HDI001pr30c09       
 HD   I      1   2.62500E+03   2.37500E+03  HDI001pr30c10       
 HD   I      1   2.87500E+03   2.37500E+03  HDI001pr30c11       
 HD   I      1   3.12500E+03   2.37500E+03  HDI001pr30c12       
 HD   I      1   3.37500E+03   2.37500E+03  HDI001pr30c13       
 HD   I      1   3.62500E+03   2.37500E+03  HDI001pr30c14       
 HD   I      1   3.87500E+03   2.37500E+03  HDI001pr30c15       
 HD   I      1   4.12500E+03   2.37500E+03  HDI001pr30c16       
 HD   I      1   4.37500E+03   2.37500E+03  HDI001pr30c17       
 HD   I      1   4.62500E+03   2.37500E+03  HDI001pr30c18       
 HD   I      1   3.75000E+02   2.12500E+03  HDI001pr31c01       
 HD   I      1   6.25000E+02   2.12500E+03  HDI001pr31c02       
 HD   I      1   8.75000E+02   2.12500E+03  HDI001pr31c03       
 HD   I      1   1.12500E+03   2.12500E+03  HDI001pr31c04       
 HD   I      1   1.37500E+03   2.12500E+03  HDI001pr31c05       
 HD   I      1   1.62500E+03   2.12500E+03  HDI001pr31c06       
 HD   I      1   1.87500E+03   2.12500E+03  HDI001pr31c07       
 HD   I      1   2.12500E+03   2.12500E+03  HDI001pr31c08       
 HD   I      1   2.37500E+03   2.12500E+03  HDI001pr31c09       
 HD   I      1   2.62500E+03   2.12500E+03  HDI001pr31c10       
 HD   I      1   2.87500E+03   2.12500E+03  HDI001pr31c11       
 HD   I      1   3.12500E+03   2.12500E+03  HDI001pr31c12       
 HD   I      1   3.37500E+03   2.12500E+03  HDI001pr31c13       
 HD   I      1   3.62500E+03   2.12500E+03  HDI001pr31c14       
 HD   I      1   3.87500E+03   2.12500E+03  HDI001pr31c15       
 HD   I      1   4.12500E+03   2.12500E+03  HDI001pr31c16       
 HD   I      1   4.37500E+03   2.12500E+03  HDI001pr31c17       
 HD   I      1   4.62500E+03   2.12500E+03  HDI001pr31c18       
 HD   I      1   3.75000E+02   1.87500E+03  HDI001pr32c01       
 HD   I      1   6.25000E+02   1.87500E+03  HDI001pr32c02       
 HD   I      1   8.75000E+02   1.87500E+03  HDI001pr32c03       
 HD   I      1   1.12500E+03   1.87500E+03  HDI001pr32c04       
 HD   I      1   1.37500E+03   1.87500E+03  HDI001pr32c05       
 HD   I      1   1.62500E+03   1.87500E+03  HDI001pr32c06       
 HD   I      1   1.87500E+03   1.87500E+03  HDI001pr32c07       
 HD   I      1   2.12500E+03   1.87500E+03  HDI001pr32c08       
 HD   I      1   2.37500E+03   1.87500E+03  HDI001pr32c09       
 HD   I      1   2.62500E+03   1.87500E+03  HDI001pr32c10       
 HD   I      1   2.87500E+03   1.87500E+03  HDI001pr32c11       
 HD   I      1   3.12500E+03   1.87500E+03  HDI001pr32c12       
 HD   I      1   3.37500E+03   1.87500E+03  HDI001pr32c13       
 HD   I      1   3.62500E+03   1.87500E+03  HDI001pr32c14       
 HD   I      1   3.87500E+03   1.87500E+03  HDI001pr32c15       
 HD   I      1   4.12500E+03   1.87500E+03  HDI001pr32c16       
 HD   I      1   4.37500E+03   1.87500E+03  HDI001pr32c17       
 HD   I      1   4.62500E+03   1.87500E+03  HDI001pr32c18       
 HD   I      1   6.25000E+02   1.62500E+03  HDI001pr33c02       
 HD   I      1   8.75000E+02   1.62500E+03  HDI001pr33c03       
 HD   I      1   1.12500E+03   1.62500E+03  HDI001pr33c04       
 HD   I      1   1.37500E+03   1.62500E+03  HDI001pr33c05       
 HD   I      1   1.62500E+03   1.62500E+03  HDI001pr33c06       
 HD   I      1   1.87500E+03   1.62500E+03  HDI001pr33c07       
 HD   I      1   2.12500E+03   1.62500E+03  HDI001pr33c08       
 HD   I      1   2.37500E+03   1.62500E+03  HDI001pr33c09       
 HD   I      1   2.62500E+03   1.62500E+03  HDI001pr33c10       
 HD   I      1   2.87500E+03   1.62500E+03  HDI001pr33c11       
 HD   I      1   3.12500E+03   1.62500E+03  HDI001pr33c12       
 HD   I      1   3.37500E+03   1.62500E+03  HDI001pr33c13       
 HD   I      1   3.62500E+03   1.62500E+03  HDI001pr33c14       
 HD   I      1   3.87500E+03   1.62500E+03  HDI001pr33c15       
 HD   I      1   4.12500E+03   1.62500E+03  HDI001pr33c16       
 HD   I      1   4.37500E+03   1.62500E+03  HDI001pr33c17       
 HD   I      1   4.62500E+03   1.62500E+03  HDI001pr33c18       
 HD   I      1   8.75000E+02   1.37500E+03  HDI001pr34c03       
 HD   I      1   1.12500E+03   1.37500E+03  HDI001pr34c04       
 HD   I      1   1.37500E+03   1.37500E+03  HDI001pr34c05       
 HD   I      1   1.62500E+03   1.37500E+03  HDI001pr34c06       
 HD   I      1   1.87500E+03   1.37500E+03  HDI001pr34c07       
 HD   I      1   2.12500E+03   1.37500E+03  HDI001pr34c08       
 HD   I      1   2.37500E+03   1.37500E+03  HDI001pr34c09       
 HD   I      1   2.62500E+03   1.37500E+03  HDI001pr34c10       
 HD   I      1   2.87500E+03   1.37500E+03  HDI001pr34c11       
 HD   I      1   3.12500E+03   1.37500E+03  HDI001pr34c12       
 HD   I      1   3.37500E+03   1.37500E+03  HDI001pr34c13       
 HD   I      1   3.62500E+03   1.37500E+03  HDI001pr34c14       
 HD   I      1   3.87500E+03   1.37500E+03  HDI001pr34c15       
 HD   I      1   4.12500E+03   1.37500E+03  HDI001pr34c16       
 HD   I      1   4.37500E+03   1.37500E+03  HDI001pr34c17       
 HD   I      1   4.62500E+03   1.37500E+03  HDI001pr34c18       
 HD   I      1   1.12500E+03   1.12500E+03  HDI001pr35c04       
 HD   I      1   1.37500E+03   1.12500E+03  HDI001pr35c05       
 HD   I      1   1.62500E+03   1.12500E+03  HDI001pr35c06       
 HD   I      1   1.87500E+03   1.12500E+03  HDI001pr35c07       
 HD   I      1   2.12500E+03   1.12500E+03  HDI001pr35c08       
 HD   I      1   2.37500E+03   1.12500E+03  HDI001pr35c09       
 HD   I      1   2.62500E+03   1.12500E+03  HDI001pr35c10       
 HD   I      1   2.87500E+03   1.12500E+03  HDI001pr35c11       
 HD   I      1   3.12500E+03   1.12500E+03  HDI001pr35c12       
 HD   I      1   3.37500E+03   1.12500E+03  HDI001pr35c13       
 HD   I      1   3.62500E+03   1.12500E+03  HDI001pr35c14       
 HD   I      1   3.87500E+03   1.12500E+03  HDI001pr35c15       
 HD   I      1   4.12500E+03   1.12500E+03  HDI001pr35c16       
 HD   I      1   4.37500E+03   1.12500E+03  HDI001pr35c17       
 HD   I      1   4.62500E+03   1.12500E+03  HDI001pr35c18       
 HD   I      1   1.12500E+03   8.75000E+02  HDI001pr36c04       
 HD   I      1   1.37500E+03   8.75000E+02  HDI001pr36c05       
 HD   I      1   1.62500E+03   8.75000E+02  HDI001pr36c06       
 HD   I      1   1.87500E+03   8.75000E+02  HDI001pr36c07       
 HD   I      1   2.12500E+03   8.75000E+02  HDI001pr36c08       
 HD   I      1   2.37500E+03   8.75000E+02  HDI001pr36c09       
 HD   I      1   2.62500E+03   8.75000E+02  HDI001pr36c10       
 HD   I      1   2.87500E+03   8.75000E+02  HDI001pr36c11       
 HD   I      1   3.12500E+03   8.75000E+02  HDI001pr36c12       
 HD   I      1   3.37500E+03   8.75000E+02  HDI001pr36c13       
 HD   I      1   3.62500E+03   8.75000E+02  HDI001pr36c14       
 HD   I      1   3.87500E+03   8.75000E+02  HDI001pr36c15       
 HD   I      1   4.12500E+03   8.75000E+02  HDI001pr36c16       
 HD   I      1   4.37500E+03   8.75000E+02  HDI001pr36c17       
 HD   I      1   4.62500E+03   8.75000E+02  HDI001pr36c18       
 HD   I      1   1.37500E+03   6.25000E+02  HDI001pr37c05       
 HD   I      1   1.62500E+03   6.25000E+02  HDI001pr37c06       
 HD   I      1   1.87500E+03   6.25000E+02  HDI001pr37c07       
 HD   I      1   2.12500E+03   6.25000E+02  HDI001pr37c08       
 HD   I      1   2.37500E+03   6.25000E+02  HDI001pr37c09       
 HD   I      1   2.62500E+03   6.25000E+02  HDI001pr37c10       
 HD   I      1   2.87500E+03   6.25000E+02  HDI001pr37c11       
 HD   I      1   3.12500E+03   6.25000E+02  HDI001pr37c12       
 HD   I      1   3.37500E+03   6.25000E+02  HDI001pr37c13       
 HD   I      1   3.62500E+03   6.25000E+02  HDI001pr37c14       
 HD   I      1   3.87500E+03   6.25000E+02  HDI001pr37c15       
 HD   I      1   4.12500E+03   6.25000E+02  HDI001pr37c16       
 HD   I      1   4.37500E+03   6.25000E+02  HDI001pr37c17       
 HD   I      1   1.37500E+03   3.75000E+02  HDI001pr38c05       
 HD   I      1   1.62500E+03   3.75000E+02  HDI001pr38c06       
 HD   I      1   1.87500E+03   3.75000E+02  HDI001pr38c07       
 HD   I      1   2.12500E+03   3.75000E+02  HDI001pr38c08       
 HD   I      1   2.37500E+03   3.75000E+02  HDI001pr38c09       
 HD   I      1   2.62500E+03   3.75000E+02  HDI001pr38c10       
 HD   I      1   2.87500E+03   3.75000E+02  HDI001pr38c11       
 HD   I      1   3.12500E+03   3.75000E+02  HDI001pr38c12       
 HD   I      1   3.37500E+03   3.75000E+02  HDI001pr38c13       
 HD   I      1   3.62500E+03   3.75000E+02  HDI001pr38c14       
 HD   I      1   3.87500E+03   3.75000E+02  HDI001pr38c15       
 HD   I      1   4.12500E+03   3.75000E+02  HDI001pr38c16       
1
                            STRESS PERIOD NO.    1, LENGTH =  1.0000000    
                            -----------------------------------------------

                              NUMBER OF TIME STEPS =     1

                               MULTIPLIER FOR DELT =     1.000

                            INITIAL TIME STEP SIZE =  1.0000000    

 WELL NO.  LAYER   ROW   COL   STRESS RATE         
 --------------------------------------------------
      1      1      9     16      -628.8    
      2      1     11     13      -330.9    
      3      1     20     14      -339.7    
      4      1     26     10      -66.29    
      5      1     29      6      -64.28    
      6      1     34     12      -444.3    

      6 WELLS

 REACH NO.  LAYER   ROW   COL     STAGE      CONDUCTANCE     BOTTOM EL.         
 -------------------------------------------------------------------------------
      1      1      1     15       20.19           5776.           20.00    
      2      1      2     15       19.60           3790.           19.75    
      3      1      3     15       19.89           5532.           19.50    
      4      1      4     15       19.38           6135.           19.25    
      5      1      5     15       19.28           5536.           19.00    
      6      1      6     15       19.22           3842.           18.75    
      7      1      7     15       18.90           2866.           18.50    
      8      1      8     15       18.42           4318.           18.25    
      9      1      9     15       18.10           4796.           18.00    
     10      1     10     15       18.88           4638.           17.75    
     11      1     11     15       18.01           4619.           17.50    
     12      1     12     15       17.35           5474.           17.25    
     13      1     13     15       17.33           3453.           17.00    
     14      1     14     15       17.56           6251.           16.75    
     15      1     15     15       16.76           5307.           16.50    
     16      1     16     15       16.28           6982.           16.25    
     17      1     17     15       16.41           5070.           16.00    
     18      1     18     15       15.91           4556.           15.75    
     19      1     19     15       16.06           5303.           15.50    
     20      1     20     15       16.06           4765.           15.25    
     21      1     21     15       15.52           5390.           15.00    
     22      1     22     15       15.39           2649.           14.75    
     23      1     23     15       15.16           4347.           14.50    
     24      1     24     15       15.01           5110.           14.25    
     25      1     25     15       14.90           3705.           14.00    
     26      1     26     15       14.49           3711.           13.75    
     27      1     27     15       14.17           4484.           13.50    
     28      1     28     15       14.01           4405.           13.25    
     29      1     29     15       13.73           5105.           13.00    
     30      1     30     15       13.58           5620.           12.75    
     31      1     31     15       13.32           3492.           12.50    
     32      1     32     15       13.14           5515.           12.25    
     33      1     33     15       12.85           4310.           12.00    
     34      1     34     15       12.55           6270.           11.75    
     35      1     35     15       12.22           5453.           11.50    
     36      1     36     15       12.25           4212.           11.25    
     37      1     37     15       11.85           6121.           11.00    
     38      1     38     15       11.90           6083.           10.75    
     39      1     39     15       11.48           3721.           10.50    
     40      1     40     15       11.24           5427.           10.25    

     40 RIVER REACHES

                 RECHARGE =  1.100000E-04
 
 SOLVING FOR HEAD 


    17 CALLS TO PCG ROUTINE FOR TIME STEP   1 IN STRESS PERIOD    1
   203 TOTAL ITERATIONS

 MAXIMUM HEAD CHANGE FOR EACH ITERATION (1 INDICATES THE FIRST INNER ITERATION):

    HEAD CHANGE    HEAD CHANGE    HEAD CHANGE    HEAD CHANGE    HEAD CHANGE 
   LAYER,ROW,COL  LAYER,ROW,COL  LAYER,ROW,COL  LAYER,ROW,COL  LAYER,ROW,COL
 ---------------------------------------------------------------------------
  1  -49.11      0  -27.68      0   21.32      0   7.281      0  -3.170    
   (  1, 39, 11)  (  1,  9,  4)  (  1,  9,  4)  (  1, 23,  5)  (  1, 33,  2)
  0  -1.264      0 -0.5309      0 -0.2836      0 -0.1740      0 -0.8731E-01
   (  1, 29,  5)  (  1, 37,  5)  (  1, 37,  5)  (  1, 19,  4)  (  1,  8,  4)
  0  0.5585E-01  0 -0.2658E-01  0  0.1710E-01  0  0.8342E-02  0  0.2624E-02
   (  1,  9,  4)  (  1,  9,  4)  (  1,  9,  4)  (  1, 13,  3)  (  1, 35,  4)
  0  0.9759E-03  0 -0.5784E-03  0 -0.1749E-03  0  0.6023E-04  0 -0.7979E-04
   (  1,  3,  6)  (  1,  4,  5)  (  1,  5, 12)  (  1,  9,  4)  (  1,  9,  4)
  0 -0.3520E-04  0 -0.1111E-04  0  0.8666E-05  1  -13.30      0  -10.58    
   (  1,  8,  5)  (  1, 15,  3)  (  1, 14,  2)  (  1, 39, 12)  (  1,  9,  4)
  0   4.446      0   2.051      0  -1.157      0 -0.4296      0 -0.1656    
   (  1, 32,  1)  (  1, 21,  4)  (  1, 33,  2)  (  1, 29,  6)  (  1, 24,  8)
  0 -0.8134E-01  0 -0.3907E-01  0 -0.2810E-01  0 -0.1977E-01  0  0.1450E-01
   (  1, 37,  5)  (  1, 20,  4)  (  1,  8,  5)  (  1,  9,  4)  (  1,  9,  1)
  0  0.3930E-02  0  0.2085E-02  0  0.6144E-03  0  0.3378E-03  0 -0.1469E-03
   (  1, 32,  1)  (  1, 13,  3)  (  1, 20,  3)  (  1,  4,  6)  (  1,  1,  2)
  0 -0.1154E-03  0  0.8058E-04  0  0.1261E-04  0 -0.9057E-05  1   9.924    
   (  1,  9,  2)  (  1,  9,  4)  (  1,  8,  5)  (  1,  8,  4)  (  1,  9,  4)
  0  -7.710      0  -2.926      0  0.7421      0 -0.4249      0 -0.1486    
   (  1,  9,  4)  (  1,  8,  5)  (  1, 39, 12)  (  1, 33,  2)  (  1, 28,  4)
  0 -0.7373E-01  0 -0.3721E-01  0 -0.1048E-01  0 -0.7358E-02  0  0.5339E-02
   (  1, 15,  1)  (  1,  8,  4)  (  1, 28,  7)  (  1, 10,  4)  (  1,  9,  4)
  0 -0.2124E-02  0  0.9977E-03  0  0.4454E-03  0  0.2548E-03  0  0.9502E-04
   (  1, 25,  4)  (  1,  1,  6)  (  1, 34,  3)  (  1, 21,  3)  (  1,  2,  1)
  0 -0.3773E-04  0 -0.3078E-04  0  0.1824E-04  0 -0.5767E-05  1   2.803    
   (  1,  1,  2)  (  1, 12,  2)  (  1,  9,  4)  (  1,  9,  4)  (  1,  9,  4)
  0  -1.755      0  -1.018      0 -0.2424      0 -0.1688      0 -0.5272E-01
   (  1,  9,  4)  (  1,  8,  5)  (  1,  3,  6)  (  1, 33,  2)  (  1, 29,  4)
  0 -0.2279E-01  0 -0.1099E-01  0 -0.4084E-02  0 -0.2458E-02  0 -0.2056E-02
   (  1, 23,  5)  (  1,  8,  5)  (  1, 28,  7)  (  1, 29,  3)  (  1,  9,  4)
  0 -0.9775E-03  0 -0.3753E-03  0  0.2075E-03  0  0.9325E-04  0  0.4047E-04
   (  1, 25,  4)  (  1, 15,  3)  (  1, 13,  2)  (  1, 21,  3)  (  1,  2,  1)
  0 -0.1705E-04  0 -0.1076E-04  0  0.5821E-05  1  0.4470      0  0.2756    
   (  1,  5,  5)  (  1, 13,  2)  (  1,  9,  4)  (  1,  8,  5)  (  1,  9,  4)
  0 -0.2734      0 -0.6486E-01  0 -0.4532E-01  0 -0.1696E-01  0 -0.5149E-02
   (  1,  9,  4)  (  1, 32,  1)  (  1,  8,  5)  (  1, 30,  5)  (  1, 37,  5)
  0 -0.3871E-02  0 -0.1504E-02  0 -0.1085E-02  0 -0.3856E-03  0  0.4548E-03
   (  1, 27,  4)  (  1, 23,  5)  (  1, 29,  3)  (  1, 25,  4)  (  1,  9,  4)
  0 -0.2515E-03  0  0.8290E-04  0  0.2557E-04  0  0.1455E-04  0 -0.6869E-05
   (  1, 15,  3)  (  1, 13,  2)  (  1, 20,  3)  (  1,  2,  1)  (  1,  5,  5)
  1 -0.8363      0  0.2406      0 -0.1124      0 -0.1032      0  0.2804E-01
   (  1,  2, 15)  (  1,  9,  4)  (  1,  3, 11)  (  1,  8,  5)  (  1,  8,  5)
  0 -0.1386E-01  0 -0.4048E-02  0  0.3222E-02  0  0.1037E-02  0  0.6882E-03
   (  1, 21,  2)  (  1, 33,  7)  (  1, 30,  4)  (  1, 32,  1)  (  1,  9,  4)
  0 -0.6537E-03  0 -0.3348E-03  0 -0.1421E-03  0 -0.8039E-04  0  0.4237E-04
   (  1,  9,  4)  (  1, 25,  3)  (  1,  5, 11)  (  1,  4,  6)  (  1,  6,  7)
  0 -0.1193E-04  0  0.7837E-05  1 -0.2823      0  0.5238E-01  0 -0.6701E-01
   (  1, 19,  4)  (  1, 17,  3)  (  1,  2, 15)  (  1,  9,  4)  (  1,  9,  4)
  0  0.1738E-01  0 -0.1174E-01  0  0.4707E-02  0  0.1710E-02  0  0.6702E-03
   (  1,  8,  5)  (  1,  5,  1)  (  1,  8,  5)  (  1, 30,  5)  (  1, 20,  2)
  0  0.4267E-03  0  0.2357E-03  0 -0.2260E-03  0 -0.6518E-04  0 -0.4553E-04
   (  1, 25,  3)  (  1,  9,  4)  (  1,  9,  4)  (  1, 31,  1)  (  1, 17,  2)
  0  0.3832E-04  0  0.1168E-04  0  0.4149E-05  1 -0.9411E-01  0  0.2005E-01
   (  1, 15,  2)  (  1, 33,  2)  (  1, 11,  2)  (  1,  2, 15)  (  1,  9,  4)
  0 -0.1500E-01  0 -0.5789E-02  0 -0.2006E-02  0  0.1232E-02  0 -0.5350E-03
   (  1,  9,  4)  (  1, 33,  2)  (  1, 16,  1)  (  1,  8,  5)  (  1,  8,  5)
  0  0.2241E-03  0 -0.1200E-03  0  0.7257E-04  0 -0.5072E-04  0  0.3749E-04
   (  1,  4,  1)  (  1, 21,  4)  (  1, 18,  4)  (  1,  9,  4)  (  1,  9,  4)
  0 -0.2125E-04  0  0.1293E-04  0  0.3399E-05  1 -0.3141E-01  0  0.7588E-02
   (  1,  4,  1)  (  1, 14,  2)  (  1, 33,  2)  (  1,  2, 15)  (  1,  9,  4)
  0 -0.4236E-02  0 -0.3887E-02  0  0.1041E-02  0 -0.6055E-03  0 -0.1632E-03
   (  1,  3, 12)  (  1,  8,  5)  (  1,  8,  5)  (  1, 19,  2)  (  1, 26,  3)
  0  0.1350E-03  0  0.3834E-04  0 -0.2721E-04  0  0.3341E-04  0 -0.9136E-05
   (  1, 31,  6)  (  1, 33,  2)  (  1,  9,  4)  (  1,  9,  4)  (  1, 12,  2)
  1 -0.1055E-01  0  0.2559E-02  0  0.1428E-02  0 -0.1670E-02  0 -0.3767E-03
   (  1,  2, 15)  (  1,  9,  4)  (  1,  8,  5)  (  1,  8,  5)  (  1, 32,  1)
  0 -0.2084E-03  0 -0.7362E-04  0  0.4628E-04  0 -0.1454E-04  0  0.8945E-05
   (  1, 19,  2)  (  1, 26,  3)  (  1, 31,  6)  (  1,  4, 13)  (  1,  8,  5)
  1 -0.3563E-02  0  0.1049E-02  0  0.4574E-03  0 -0.5955E-03  0 -0.1214E-03
   (  1,  2, 15)  (  1,  9,  4)  (  1,  8,  5)  (  1,  8,  5)  (  1,  5,  8)
  0 -0.7243E-04  0 -0.2709E-04  0  0.1476E-04  0 -0.5253E-05  1 -0.1195E-02
   (  1, 19,  2)  (  1, 28,  4)  (  1, 31,  6)  (  1,  4, 13)  (  1,  2, 15)
  0  0.2545E-03  0  0.2592E-03  0 -0.1987E-03  0 -0.4974E-04  0 -0.2370E-04
   (  1,  8,  5)  (  1,  9,  4)  (  1,  9,  4)  (  1,  5,  7)  (  1, 19,  2)
  0 -0.9504E-05  1 -0.3970E-03  0 -0.5802E-04  0  0.1008E-03  0 -0.5020E-04
   (  1, 28,  4)  (  1,  2, 15)  (  1,  9,  4)  (  1,  9,  4)  (  1,  8,  4)
  0 -0.1990E-04  0 -0.6149E-05  1 -0.1313E-03  0  0.2095E-04  0  0.3703E-04
   (  1,  5,  7)  (  1, 19,  2)  (  1,  2, 15)  (  1,  8,  5)  (  1,  9,  4)
  0 -0.1902E-04  0 -0.6972E-05  1 -0.4307E-04  0  0.8297E-05  1  0.1140E-04
   (  1,  8,  4)  (  1,  5,  7)  (  1,  2, 15)  (  1,  8,  5)  (  1,  9,  4)
  0 -0.1219E-04  0 -0.9461E-05  1  0.4801E-05
   (  1,  2, 15)  (  1,  8,  5)  (  1,  9,  4)

 MAXIMUM RESIDUAL FOR EACH ITERATION (1 INDICATES THE FIRST INNER ITERATION):

    RESIDUAL       RESIDUAL       RESIDUAL       RESIDUAL       RESIDUAL    
   LAYER,ROW,COL  LAYER,ROW,COL  LAYER,ROW,COL  LAYER,ROW,COL  LAYER,ROW,COL
 ---------------------------------------------------------------------------
  1  -6302.      0  -3760.      0  -2143.      0  -1024.      0  -782.6    
   (  1, 39, 13)  (  1, 39, 13)  (  1, 39,  9)  (  1, 39, 15)  (  1, 39, 15)
  0  -578.6      0  -408.1      0  -242.2      0  -120.0      0  -61.41    
   (  1, 39, 15)  (  1, 39, 15)  (  1, 39, 15)  (  1, 39, 15)  (  1, 39, 15)
  0  -30.48      0  -23.89      0  -10.48      0  -3.391      0 -0.9946    
   (  1, 39, 15)  (  1, 39, 15)  (  1, 39, 15)  (  1, 39, 15)  (  1, 39, 15)
  0 -0.2933      0 -0.1081      0 -0.5975E-01  0 -0.3313E-01  0 -0.2885E-01
   (  1, 39, 15)  (  1, 38, 15)  (  1, 38, 15)  (  1, 38, 15)  (  1, 38, 15)
  0 -0.1439E-01  0 -0.6425E-02  0 -0.2613E-02  1  -1273.      0  -1107.    
   (  1, 38, 15)  (  1, 38, 15)  (  1, 38, 15)  (  1, 39, 12)  (  1, 39, 13)
  0  -482.5      0  -223.4      0  -171.0      0  -126.2      0  -87.98    
   (  1, 39,  9)  (  1, 39, 15)  (  1, 39, 15)  (  1, 39, 15)  (  1, 39, 15)
  0  -53.36      0  -29.66      0  -17.25      0  -14.06      0  -6.969    
   (  1, 39, 15)  (  1, 39, 15)  (  1, 39, 15)  (  1, 39, 15)  (  1, 39, 15)
  0  -2.686      0 -0.9468      0 -0.3237      0 -0.1100      0 -0.3050E-01
   (  1, 39, 15)  (  1, 39, 15)  (  1, 39, 15)  (  1, 39, 15)  (  1, 39, 15)
  0 -0.2147E-01  0 -0.1318E-01  0 -0.6536E-02  0 -0.2958E-02  1   444.3    
   (  1, 38, 15)  (  1, 38, 15)  (  1, 38, 15)  (  1, 38, 15)  (  1, 38, 15)
  0  -243.6      0  -154.5      0  -49.66      0  -37.96      0  -28.38    
   (  1, 39, 12)  (  1, 39, 12)  (  1, 39, 15)  (  1, 39, 15)  (  1, 39, 15)
  0  -19.82      0  -11.70      0  -7.020      0  -4.310      0  -3.614    
   (  1, 39, 15)  (  1, 39, 15)  (  1, 39, 15)  (  1, 39, 15)  (  1, 39, 15)
  0  -1.836      0 -0.7374      0 -0.3277      0 -0.1227      0 -0.3915E-01
   (  1, 39, 15)  (  1, 39, 15)  (  1, 39, 15)  (  1, 39, 15)  (  1, 39, 15)
  0 -0.1159E-01  0 -0.4416E-02  0 -0.3359E-02  0 -0.1574E-02  1   98.34    
   (  1, 39, 15)  (  1, 39, 15)  (  1, 38, 15)  (  1, 38, 15)  (  1, 38, 15)
  0  -61.81      0  -42.42      0  -15.77      0  -9.854      0  -7.504    
   (  1, 39, 12)  (  1, 39, 12)  (  1, 39, 14)  (  1, 39, 15)  (  1, 39, 15)
  0  -5.303      0  -3.169      0  -1.927      0  -1.251      0  -1.065    
   (  1, 39, 15)  (  1, 39, 15)  (  1, 39, 15)  (  1, 39, 15)  (  1, 39, 15)
  0 -0.5782      0 -0.2883      0 -0.1318      0 -0.5370E-01  0 -0.2093E-01
   (  1, 39, 15)  (  1, 39, 15)  (  1, 39, 15)  (  1, 39, 15)  (  1, 39, 15)
  0 -0.7363E-02  0 -0.3029E-02  0 -0.2452E-02  1   25.35      0  -19.77    
   (  1, 39, 15)  (  1, 39, 15)  (  1, 39, 15)  (  1, 38, 15)  (  1, 34, 12)
  0  -10.17      0  -4.571      0  -2.714      0  -1.937      0  -1.412    
   (  1, 34, 12)  (  1, 39, 14)  (  1, 39, 15)  (  1, 39, 15)  (  1, 39, 15)
  0 -0.8966      0 -0.5594      0 -0.3519      0 -0.2202      0 -0.1768    
   (  1, 39, 15)  (  1, 39, 15)  (  1, 39, 15)  (  1, 39, 15)  (  1, 39, 15)
  0 -0.9545E-01  0 -0.4460E-01  0 -0.1888E-01  0 -0.7994E-02  0 -0.3193E-02
   (  1, 39, 15)  (  1, 39, 15)  (  1, 39, 15)  (  1, 39, 15)  (  1, 39, 15)
  1   57.28      0   49.44      0   20.94      0   10.59      0   4.751    
   (  1,  1, 15)  (  1,  1, 15)  (  1,  3, 14)  (  1,  3, 14)  (  1,  3, 15)
  0  -2.342      0   1.362      0  0.7641      0  0.3008      0 -0.1456    
   (  1,  3, 13)  (  1,  4, 13)  (  1,  4, 13)  (  1,  4, 13)  (  1,  4, 12)
  0 -0.1210      0  0.6935E-01  0  0.3162E-01  0  0.1481E-01  0 -0.3871E-02
   (  1,  4, 12)  (  1,  5, 12)  (  1,  5, 12)  (  1,  5, 12)  (  1,  5, 11)
  0  0.2102E-02  0  0.1101E-02  1   17.05      0   14.91      0   6.728    
   (  1,  6, 11)  (  1,  6, 11)  (  1,  1, 15)  (  1,  3, 14)  (  1,  3, 14)
  0   3.181      0   1.464      0 -0.7382      0  0.4244      0  0.2558    
   (  1,  3, 14)  (  1,  3, 15)  (  1,  3, 13)  (  1,  4, 13)  (  1,  4, 13)
  0  0.9543E-01  0 -0.4205E-01  0 -0.3410E-01  0  0.2160E-01  0  0.1070E-01
   (  1,  4, 13)  (  1,  4, 12)  (  1,  4, 12)  (  1,  5, 12)  (  1,  5, 12)
  0  0.4771E-02  0  0.1274E-02  0  0.7251E-03  1   5.574      0   5.264    
   (  1,  5, 12)  (  1,  5, 12)  (  1,  6, 11)  (  1, 37, 15)  (  1,  3, 14)
  0   2.307      0  0.8853      0 -0.3671      0 -0.2186      0  0.1351    
   (  1,  3, 14)  (  1,  3, 14)  (  1,  3, 13)  (  1,  3, 13)  (  1,  4, 13)
  0  0.7120E-01  0  0.3088E-01  0 -0.1228E-01  0 -0.1043E-01  0  0.6485E-02
   (  1,  4, 13)  (  1,  4, 13)  (  1,  4, 12)  (  1,  4, 12)  (  1,  5, 12)
  0  0.3403E-02  0  0.1633E-02  0 -0.4166E-03  1   1.924      0   1.846    
   (  1,  5, 12)  (  1,  5, 12)  (  1,  5, 11)  (  1,  3, 14)  (  1,  3, 14)
  0  0.8860      0  0.4357      0  0.1702      0 -0.8187E-01  0  0.5709E-01
   (  1,  3, 14)  (  1,  3, 14)  (  1,  3, 15)  (  1,  3, 13)  (  1,  4, 13)
  0  0.3245E-01  0  0.1188E-01  0 -0.5488E-02  0 -0.4052E-02  0  0.2738E-02
   (  1,  4, 13)  (  1,  4, 13)  (  1,  4, 12)  (  1,  4, 12)  (  1,  5, 12)
  1  0.6706      0  0.6379      0  0.3617      0  0.1693      0  0.5889E-01
   (  1,  3, 14)  (  1,  3, 14)  (  1,  3, 14)  (  1,  3, 14)  (  1,  3, 15)
  0  0.2868E-01  0  0.2196E-01  0  0.1185E-01  0  0.4128E-02  0 -0.1728E-02
   (  1,  4, 13)  (  1,  4, 13)  (  1,  4, 13)  (  1,  4, 13)  (  1,  4, 12)
  1  0.2344      0  0.1924      0  0.1374      0  0.6109E-01  0  0.2197E-01
   (  1,  3, 14)  (  1,  3, 14)  (  1,  3, 14)  (  1,  3, 14)  (  1,  3, 14)
  0  0.1030E-01  0  0.7956E-02  0  0.4246E-02  0  0.1448E-02  1  0.8105E-01
   (  1,  4, 13)  (  1,  4, 13)  (  1,  4, 13)  (  1,  4, 13)  (  1,  3, 14)
  0  0.6490E-01  0  0.4944E-01  0  0.2173E-01  0  0.7932E-02  0  0.3653E-02
   (  1,  3, 14)  (  1,  3, 14)  (  1,  3, 14)  (  1,  3, 14)  (  1,  4, 13)
  0  0.2815E-02  1  0.2807E-01  0  0.2617E-01  0  0.1847E-01  0  0.7888E-02
   (  1,  4, 13)  (  1,  3, 14)  (  1,  3, 14)  (  1,  3, 14)  (  1,  3, 14)
  0  0.2957E-02  0  0.1294E-02  1  0.9663E-02  0  0.9183E-02  0  0.6921E-02
   (  1,  3, 14)  (  1,  4, 13)  (  1,  3, 14)  (  1,  3, 14)  (  1,  3, 14)
  0  0.2512E-02  0  0.1032E-02  1  0.3357E-02  0  0.3162E-02  1  0.6399E-02
   (  1,  3, 14)  (  1,  3, 14)  (  1,  3, 14)  (  1,  3, 14)  (  1,  2, 15)
  0  0.1408E-02  0  0.5236E-03  1  0.2150E-02
   (  1,  2, 15)  (  1,  3, 14)  (  1,  2, 15)



 OUTPUT CONTROL FOR STRESS PERIOD    1   TIME STEP    1
    SAVE HEAD FOR ALL LAYERS
    SAVE BUDGET
 UBDSV2 SAVING "   CONSTANT HEAD" ON UNIT  53 AT TIME STEP  1, STRESS PERIOD   1
 UBDSV1 SAVING "FLOW RIGHT FACE " ON UNIT  53 AT TIME STEP  1, STRESS PERIOD   1
 UBDSV1 SAVING "FLOW FRONT FACE " ON UNIT  53 AT TIME STEP  1, STRESS PERIOD   1

 HEAD WILL BE SAVED ON UNIT   51 AT END OF TIME STEP    1, STRESS PERIOD    1
1
  VOLUMETRIC BUDGET FOR ENTIRE MODEL AT END OF TIME STEP    1, STRESS PERIOD   1
  ------------------------------------------------------------------------------

     CUMULATIVE VOLUMES      L**3       RATES FOR THIS TIME STEP      L**3/T
     ------------------                 ------------------------

           IN:                                      IN:
           ---                                      ---
             STORAGE =           0.0000               STORAGE =           0.0000
       CONSTANT HEAD =          34.3465         CONSTANT HEAD =          34.3465
               WELLS =           0.0000                 WELLS =           0.0000
       RIVER LEAKAGE =         928.0873         RIVER LEAKAGE =         928.0873
            RECHARGE =        4778.1250              RECHARGE =        4778.1250

            TOTAL IN =        5740.5591              TOTAL IN =        5740.5591

          OUT:                                     OUT:
          ----                                     ----
             STORAGE =           0.0000               STORAGE =           0.0000
       CONSTANT HEAD =         147.6107         CONSTANT HEAD =         147.6107
               WELLS =        1874.3583                 WELLS =        1874.3583
       RIVER LEAKAGE =        3718.6343         RIVER LEAKAGE =        3718.6343
            RECHARGE =           0.0000              RECHARGE =           0.0000

           TOTAL OUT =        5740.6035             TOTAL OUT =        5740.6035

            IN - OUT =      -4.4434E-02              IN - OUT =      -4.4434E-02

 PERCENT DISCREPANCY =          -0.00     PERCENT DISCREPANCY =          -0.00






         TIME SUMMARY AT END OF TIME STEP    1 IN STRESS PERIOD    1
                    SECONDS     MINUTES      HOURS       DAYS        YEARS
                    -----------------------------------------------------------
   TIME STEP LENGTH  86400.      1440.0      24.000     1.00000     2.73785E-03
 STRESS PERIOD TIME  86400.      1440.0      24.000     1.00000     2.73785E-03
         TOTAL TIME  86400.      1440.0      24.000     1.00000     2.73785E-03
1
 A TOTAL OF 640 HYDROGRAPH POINTS HAVE BEEN PREPARED.
1
                            STRESS PERIOD NO.    2, LENGTH =   1825.000    
                            -----------------------------------------------

                              NUMBER OF TIME STEPS =     1

                               MULTIPLIER FOR DELT =     1.000

                            INITIAL TIME STEP SIZE =   1825.000    

 WELL NO.  LAYER   ROW   COL   STRESS RATE         
 --------------------------------------------------
      1      1      9     16      -841.8    
      2      1     11     13      -456.2    
      3      1     20     14      -363.5    
      4      1     26     10      -96.74    
      5      1     29      6      -66.48    
      6      1     34     12      -493.4    

      6 WELLS

 REACH NO.  LAYER   ROW   COL     STAGE      CONDUCTANCE     BOTTOM EL.         
 -------------------------------------------------------------------------------
      1      1      1     15       20.29           6513.           20.00    
      2      1      2     15       19.81           4438.           19.75    
      3      1      3     15       20.10           6156.           19.50    
      4      1      4     15       19.37           5410.           19.25    
      5      1      5     15       19.21           6028.           19.00    
      6      1      6     15       18.97           5313.           18.75    
      7      1      7     15       18.81           3846.           18.50    
      8      1      8     15       18.43           5831.           18.25    
      9      1      9     15       18.58           4497.           18.00    
     10      1     10     15       19.07           4282.           17.75    
     11      1     11     15       17.64           5710.           17.50    
     12      1     12     15       17.46           3483.           17.25    
     13      1     13     15       17.53           4368.           17.00    
     14      1     14     15       17.35           4593.           16.75    
     15      1     15     15       16.87           5063.           16.50    
     16      1     16     15       16.89           2612.           16.25    
     17      1     17     15       16.31           4018.           16.00    
     18      1     18     15       16.11           5095.           15.75    
     19      1     19     15       16.09           5867.           15.50    
     20      1     20     15       15.61           2969.           15.25    
     21      1     21     15       15.30           2970.           15.00    
     22      1     22     15       15.28           4680.           14.75    
     23      1     23     15       15.05           4085.           14.50    
     24      1     24     15       15.21           4238.           14.25    
     25      1     25     15       14.74           5667.           14.00    
     26      1     26     15       14.44           4505.           13.75    
     27      1     27     15       14.35           4536.           13.50    
     28      1     28     15       13.63           4374.           13.25    
     29      1     29     15       13.78           5304.           13.00    
     30      1     30     15       13.71           4737.           12.75    
     31      1     31     15       13.39           4671.           12.50    
     32      1     32     15       12.99           4225.           12.25    
     33      1     33     15       12.89           3323.           12.00    
     34      1     34     15       12.53           3788.           11.75    
     35      1     35     15       12.32           3981.           11.50    
     36      1     36     15       12.11           6059.           11.25    
     37      1     37     15       11.89           5024.           11.00    
     38      1     38     15       11.64           4588.           10.75    
     39      1     39     15       11.37           3807.           10.50    
     40      1     40     15       11.57           3644.           10.25    

     40 RIVER REACHES

                 RECHARGE =  9.358508E-05
 
 SOLVING FOR HEAD 


    12 CALLS TO PCG ROUTINE FOR TIME STEP   1 IN STRESS PERIOD    2
    60 TOTAL ITERATIONS

 MAXIMUM HEAD CHANGE FOR EACH ITERATION (1 INDICATES THE FIRST INNER ITERATION):

    HEAD CHANGE    HEAD CHANGE    HEAD CHANGE    HEAD CHANGE    HEAD CHANGE 
   LAYER,ROW,COL  LAYER,ROW,COL  LAYER,ROW,COL  LAYER,ROW,COL  LAYER,ROW,COL
 ---------------------------------------------------------------------------
  1   1.881      0  0.2021      0 -0.6611E-01  0 -0.9358E-02  0  0.2491E-02
   (  1,  2, 15)  (  1,  3, 13)  (  1,  1, 20)  (  1,  3,  8)  (  1,  1, 20)
  0 -0.5763E-03  0  0.2677E-03  0  0.5862E-04  0 -0.1210E-04  0  0.3563E-05
   (  1,  9,  4)  (  1,  9,  4)  (  1, 38, 18)  (  1,  4,  2)  (  1, 38, 18)
  1 -0.2804      0  0.5784E-01  0 -0.9712E-02  0  0.2015E-02  0 -0.3937E-03
   (  1,  2, 15)  (  1, 11, 13)  (  1,  3, 14)  (  1, 18, 11)  (  1,  4, 13)
  0 -0.1541E-03  0 -0.6660E-04  0 -0.1352E-04  0 -0.2736E-05  1 -0.8413E-01
   (  1,  8,  5)  (  1,  9,  4)  (  1,  8,  5)  (  1,  5, 12)  (  1,  2, 15)
  0  0.1901E-01  0 -0.2910E-02  0  0.6303E-03  0  0.1252E-03  0  0.6043E-04
   (  1, 11, 13)  (  1,  3, 14)  (  1, 18, 11)  (  1, 12, 12)  (  1,  9,  4)
  0 -0.2291E-04  0 -0.4317E-05  1 -0.2522E-01  0  0.6225E-02  0  0.8923E-03
   (  1,  9,  4)  (  1,  8,  5)  (  1,  2, 15)  (  1, 11, 13)  (  1, 12, 10)
  0  0.1969E-03  0 -0.4445E-04  0  0.2113E-04  0 -0.7392E-05  1 -0.7553E-02
   (  1, 18, 11)  (  1,  9,  4)  (  1,  9,  4)  (  1,  9,  4)  (  1,  2, 15)
  0  0.2032E-02  0  0.2827E-03  0  0.6139E-04  0 -0.1532E-04  0  0.6921E-05
   (  1, 11, 13)  (  1, 12, 10)  (  1, 18, 11)  (  1,  9,  4)  (  1,  9,  4)
  1 -0.2260E-02  0  0.6602E-03  0  0.8984E-04  0  0.1905E-04  0 -0.5471E-05
   (  1,  2, 15)  (  1, 11, 13)  (  1, 12, 10)  (  1, 18, 11)  (  1,  9,  4)
  1 -0.7859E-03  0  0.2136E-03  0  0.2879E-04  0  0.6022E-05  1 -0.2782E-03
   (  1,  9, 16)  (  1, 11, 13)  (  1, 12, 10)  (  1, 17, 11)  (  1,  9, 16)
  0  0.6868E-04  0  0.9140E-05  1 -0.9688E-04  0  0.2276E-04  0  0.2899E-05
   (  1, 11, 13)  (  1, 12, 10)  (  1,  9, 16)  (  1, 11, 13)  (  1, 12, 10)
  1 -0.3372E-04  0  0.7321E-05  1 -0.1125E-04  0  0.2281E-05  1 -0.3755E-05
   (  1,  9, 16)  (  1, 11, 13)  (  1,  9, 16)  (  1, 11, 13)  (  1,  9, 16)

 MAXIMUM RESIDUAL FOR EACH ITERATION (1 INDICATES THE FIRST INNER ITERATION):

    RESIDUAL       RESIDUAL       RESIDUAL       RESIDUAL       RESIDUAL    
   LAYER,ROW,COL  LAYER,ROW,COL  LAYER,ROW,COL  LAYER,ROW,COL  LAYER,ROW,COL
 ---------------------------------------------------------------------------
  1   131.9      0  -20.40      0   4.982      0  -1.247      0  0.2706    
   (  1, 11, 15)  (  1,  3, 14)  (  1,  3, 13)  (  1,  4, 13)  (  1,  4, 12)
  0 -0.8277E-01  0 -0.2671E-01  0  0.6918E-02  0 -0.1928E-02  0 -0.3818E-03
   (  1,  5, 12)  (  1,  5, 12)  (  1,  5, 11)  (  1,  6, 11)  (  1,  6, 11)
  1   20.39      0   5.985      0   1.047      0  0.3401      0  0.9362E-01
   (  1,  2, 15)  (  1,  3, 14)  (  1,  3, 14)  (  1,  4, 13)  (  1,  4, 13)
  0  0.1874E-01  0  0.7900E-02  0  0.1785E-02  0  0.4069E-03  1   7.018    
   (  1,  5, 12)  (  1,  5, 12)  (  1,  5, 12)  (  1,  6, 11)  (  1,  2, 15)
  0   1.812      0  0.3336      0  0.1026      0  0.2990E-01  0  0.5740E-02
   (  1,  3, 14)  (  1,  3, 14)  (  1,  4, 13)  (  1,  4, 13)  (  1,  5, 12)
  0  0.2432E-02  0  0.5593E-03  1   2.464      0  0.5492      0  0.1058    
   (  1,  5, 12)  (  1,  5, 12)  (  1,  2, 15)  (  1,  3, 14)  (  1,  3, 14)
  0  0.3109E-01  0  0.9459E-02  0  0.1880E-02  0  0.7447E-03  1  0.8789    
   (  1,  4, 13)  (  1,  4, 13)  (  1,  4, 13)  (  1,  5, 12)  (  1,  2, 15)
  0  0.1660      0  0.3332E-01  0  0.9425E-02  0  0.2939E-02  0  0.6062E-03
   (  1,  3, 14)  (  1,  3, 14)  (  1,  4, 13)  (  1,  4, 13)  (  1,  4, 13)
  1  0.3167      0  0.5003E-01  0  0.1039E-01  0  0.2862E-02  0  0.9170E-03
   (  1,  2, 15)  (  1,  3, 14)  (  1,  3, 14)  (  1,  4, 13)  (  1,  4, 13)
  1  0.1147      0  0.1626E-01  0  0.3181E-02  0  0.8580E-03  1  0.4161E-01
   (  1,  2, 15)  (  1,  2, 15)  (  1,  3, 14)  (  1,  4, 13)  (  1,  2, 15)
  0  0.6098E-02  0  0.1032E-02  1  0.1521E-01  0  0.2044E-02  0  0.3618E-03
   (  1,  2, 15)  (  1,  2, 15)  (  1,  2, 15)  (  1,  2, 15)  (  1,  2, 15)
  1  0.5489E-02  0  0.6936E-03  1  0.2151E-02  0  0.2691E-03  1  0.8200E-03
   (  1,  2, 15)  (  1,  2, 15)  (  1,  2, 15)  (  1,  2, 15)  (  1,  2, 15)



 OUTPUT CONTROL FOR STRESS PERIOD    2   TIME STEP    1
    SAVE HEAD FOR ALL LAYERS
    SAVE BUDGET
 UBDSV1 SAVING "         STORAGE" ON UNIT  53 AT TIME STEP  1, STRESS PERIOD   2
 UBDSV2 SAVING "   CONSTANT HEAD" ON UNIT  53 AT TIME STEP  1, STRESS PERIOD   2
 UBDSV1 SAVING "FLOW RIGHT FACE " ON UNIT  53 AT TIME STEP  1, STRESS PERIOD   2
 UBDSV1 SAVING "FLOW FRONT FACE " ON UNIT  53 AT TIME STEP  1, STRESS PERIOD   2

 HEAD WILL BE SAVED ON UNIT   51 AT END OF TIME STEP    1, STRESS PERIOD    2
1
  VOLUMETRIC BUDGET FOR ENTIRE MODEL AT END OF TIME STEP    1, STRESS PERIOD   2
  ------------------------------------------------------------------------------

     CUMULATIVE VOLUMES      L**3       RATES FOR THIS TIME STEP      L**3/T
     ------------------                 ------------------------

           IN:                                      IN:
           ---                                      ---
             STORAGE =     1029130.8125               STORAGE =         563.9073
       CONSTANT HEAD =       90640.6016         CONSTANT HEAD =          49.6473
               WELLS =           0.0000                 WELLS =           0.0000
       RIVER LEAKAGE =     1591874.2500         RIVER LEAKAGE =         871.7513
            RECHARGE =     7423589.0000              RECHARGE =        4065.1018

            TOTAL IN =    10135235.0000              TOTAL IN =        5550.4077

          OUT:                                     OUT:
          ----                                     ----
             STORAGE =      130697.0625               STORAGE =          71.6148
       CONSTANT HEAD =      209780.0938         CONSTANT HEAD =         114.8671
               WELLS =     4232474.5000                 WELLS =        2318.1370
       RIVER LEAKAGE =     5562459.5000         RIVER LEAKAGE =        3045.8855
            RECHARGE =           0.0000              RECHARGE =           0.0000

           TOTAL OUT =    10135411.0000             TOTAL OUT =        5550.5044

            IN - OUT =        -176.0000              IN - OUT =      -9.6680E-02

 PERCENT DISCREPANCY =          -0.00     PERCENT DISCREPANCY =          -0.00






         TIME SUMMARY AT END OF TIME STEP    1 IN STRESS PERIOD    2
                    SECONDS     MINUTES      HOURS       DAYS        YEARS
                    -----------------------------------------------------------
   TIME STEP LENGTH 1.57680E+08 2.62800E+06  43800.      1825.0      4.9966    
 STRESS PERIOD TIME 1.57680E+08 2.62800E+06  43800.      1825.0      4.9966    
         TOTAL TIME 1.57766E+08 2.62944E+06  43824.      1826.0      4.9993    
1
1
                            STRESS PERIOD NO.    3, LENGTH =  1.0000000    
                            -----------------------------------------------

                              NUMBER OF TIME STEPS =     1

                               MULTIPLIER FOR DELT =     1.000

                            INITIAL TIME STEP SIZE =  1.0000000    

 WELL NO.  LAYER   ROW   COL   STRESS RATE         
 --------------------------------------------------
      1      1      9     16      -866.8    
      2      1     11     13      -425.7    
      3      1     20     14      -437.3    
      4      1     26     10      -83.07    
      5      1     29      6      -72.97    
      6      1     34     12      -441.3    

      6 WELLS

 REACH NO.  LAYER   ROW   COL     STAGE      CONDUCTANCE     BOTTOM EL.         
 -------------------------------------------------------------------------------
      1      1      1     15       20.42           4787.           20.00    
      2      1      2     15       19.91           4742.           19.75    
      3      1      3     15       19.99           5492.           19.50    
      4      1      4     15       19.27           1590.           19.25    
      5      1      5     15       19.50           5637.           19.00    
      6      1      6     15       18.58           4406.           18.75    
      7      1      7     15       18.81           4429.           18.50    
      8      1      8     15       18.60           4888.           18.25    
      9      1      9     15       18.71           4226.           18.00    
     10      1     10     15       18.93           4330.           17.75    
     11      1     11     15       17.91           3504.           17.50    
     12      1     12     15       17.57           3366.           17.25    
     13      1     13     15       17.23           5567.           17.00    
     14      1     14     15       17.37           3705.           16.75    
     15      1     15     15       16.84           4087.           16.50    
     16      1     16     15       16.80           4525.           16.25    
     17      1     17     15       16.32           2765.           16.00    
     18      1     18     15       16.30           4262.           15.75    
     19      1     19     15       16.15           4252.           15.50    
     20      1     20     15       16.09           5690.           15.25    
     21      1     21     15       15.51           6752.           15.00    
     22      1     22     15       15.36           4245.           14.75    
     23      1     23     15       15.26           4470.           14.50    
     24      1     24     15       15.14           3963.           14.25    
     25      1     25     15       14.67           3235.           14.00    
     26      1     26     15       14.65           3558.           13.75    
     27      1     27     15       14.23           921.2           13.50    
     28      1     28     15       13.87           3187.           13.25    
     29      1     29     15       13.77           4690.           13.00    
     30      1     30     15       13.55           3804.           12.75    
     31      1     31     15       13.21           3628.           12.50    
     32      1     32     15       13.12           4877.           12.25    
     33      1     33     15       12.89           3463.           12.00    
     34      1     34     15       12.61           4895.           11.75    
     35      1     35     15       12.35           5345.           11.50    
     36      1     36     15       12.11           4571.           11.25    
     37      1     37     15       12.03           3408.           11.00    
     38      1     38     15       11.48           5125.           10.75    
     39      1     39     15       11.74           3453.           10.50    
     40      1     40     15       11.44           5151.           10.25    

     40 RIVER REACHES

                 RECHARGE =  9.358508E-05
 
 SOLVING FOR HEAD 


    13 CALLS TO PCG ROUTINE FOR TIME STEP   1 IN STRESS PERIOD    3
   126 TOTAL ITERATIONS

 MAXIMUM HEAD CHANGE FOR EACH ITERATION (1 INDICATES THE FIRST INNER ITERATION):

    HEAD CHANGE    HEAD CHANGE    HEAD CHANGE    HEAD CHANGE    HEAD CHANGE 
   LAYER,ROW,COL  LAYER,ROW,COL  LAYER,ROW,COL  LAYER,ROW,COL  LAYER,ROW,COL
 ---------------------------------------------------------------------------
  1  -2.562      0   1.065      0  0.8099      0  0.2126      0  0.1245    
   (  1,  9,  4)  (  1,  9,  4)  (  1,  8,  5)  (  1, 16,  1)  (  1, 33,  2)
  0  0.4581E-01  0  0.1635E-01  0  0.6985E-02  0  0.2897E-02  0  0.2395E-02
   (  1, 28,  3)  (  1, 18,  4)  (  1,  1,  6)  (  1,  4,  5)  (  1,  9,  4)
  0 -0.1493E-02  0  0.6569E-03  0  0.2541E-03  0 -0.1024E-03  0  0.6276E-04
   (  1,  9,  3)  (  1, 33,  2)  (  1, 28,  7)  (  1, 35,  4)  (  1,  1,  2)
  0 -0.2762E-04  0 -0.1319E-04  0  0.1140E-04  0  0.5728E-05  1 -0.9004    
   (  1,  4,  5)  (  1,  9,  4)  (  1,  9,  4)  (  1,  8,  5)  (  1,  6, 15)
  0 -0.3076      0 -0.1787      0  0.1050      0  0.4298E-01  0  0.1498E-01
   (  1,  9,  4)  (  1,  8,  5)  (  1,  8,  5)  (  1,  5,  8)  (  1, 21,  2)
  0  0.6640E-02  0  0.3485E-02  0  0.3087E-02  0 -0.1643E-02  0  0.1124E-02
   (  1, 32,  5)  (  1,  7,  9)  (  1,  8,  5)  (  1,  9,  4)  (  1,  9,  4)
  0  0.4385E-03  0 -0.3207E-03  0  0.1263E-03  0 -0.4565E-04  0  0.1981E-04
   (  1,  4,  1)  (  1,  7,  6)  (  1,  9,  8)  (  1, 19,  2)  (  1, 18,  3)
  0  0.1002E-04  0 -0.4646E-05  1 -0.2774      0 -0.1613      0 -0.1030    
   (  1, 32,  1)  (  1,  9,  4)  (  1,  6, 15)  (  1,  9,  4)  (  1,  8,  5)
  0  0.2847E-01  0  0.1799E-01  0  0.4515E-02  0  0.3287E-02  0  0.1358E-02
   (  1,  8,  5)  (  1,  4,  6)  (  1,  6, 12)  (  1, 29,  4)  (  1,  7,  8)
  0  0.1016E-02  0 -0.2993E-03  0 -0.3185E-03  0  0.2592E-03  0 -0.8074E-04
   (  1,  8,  5)  (  1, 29,  8)  (  1,  9,  4)  (  1,  9,  4)  (  1,  2,  3)
  0  0.3246E-04  0 -0.1440E-04  0 -0.6542E-05  1 -0.1042      0 -0.3923E-01
   (  1,  9,  8)  (  1, 20,  3)  (  1, 33,  2)  (  1,  6, 15)  (  1,  9,  4)
  0 -0.3198E-01  0  0.1057E-01  0  0.5952E-02  0  0.1580E-02  0  0.1029E-02
   (  1,  8,  5)  (  1,  8,  5)  (  1,  4,  6)  (  1,  6, 12)  (  1, 29,  4)
  0  0.4528E-03  0  0.3118E-03  0 -0.9753E-04  0  0.1252E-03  0 -0.5027E-04
   (  1,  7,  9)  (  1,  8,  5)  (  1, 29,  8)  (  1,  9,  4)  (  1,  9,  4)
  0 -0.2555E-04  0  0.9538E-05  1 -0.3654E-01  0  0.7350E-02  0 -0.1066E-01
   (  1,  6,  6)  (  1,  9,  8)  (  1,  6, 15)  (  1,  9,  4)  (  1,  9,  4)
  0  0.4212E-02  0  0.1618E-02  0  0.5340E-03  0  0.2525E-03  0  0.1228E-03
   (  1,  8,  5)  (  1,  4,  7)  (  1,  6, 12)  (  1, 29,  4)  (  1,  7,  9)
  0  0.1167E-03  0  0.2806E-04  0 -0.2943E-04  0  0.2506E-04  0 -0.7955E-05
   (  1,  8,  5)  (  1,  3,  3)  (  1,  9,  4)  (  1,  9,  4)  (  1,  6,  6)
  1 -0.1199E-01  0  0.4755E-02  0 -0.1653E-02  0 -0.7713E-03  0  0.7814E-03
   (  1,  6, 15)  (  1,  9,  4)  (  1,  7, 13)  (  1,  7, 14)  (  1,  8,  4)
  0 -0.2362E-03  0 -0.7767E-04  0  0.3065E-04  0  0.3112E-04  0  0.1845E-04
   (  1,  8,  4)  (  1,  4,  9)  (  1,  3,  8)  (  1,  8,  5)  (  1,  9,  4)
  0 -0.1590E-04  0  0.3312E-05  1 -0.4036E-02  0  0.1863E-02  0 -0.5389E-03
   (  1,  9,  4)  (  1, 27,  8)  (  1,  6, 15)  (  1,  9,  4)  (  1,  7, 13)
  0 -0.5981E-03  0  0.2884E-03  0  0.5699E-04  0 -0.3191E-04  0 -0.1563E-04
   (  1,  8,  5)  (  1,  8,  4)  (  1, 31,  7)  (  1, 30,  6)  (  1, 20,  4)
  0  0.8540E-05  1 -0.1414E-02  0  0.6013E-03  0  0.2009E-03  0 -0.2252E-03
   (  1, 18,  3)  (  1,  6, 15)  (  1,  9,  4)  (  1,  8,  5)  (  1,  8,  5)
  0  0.8010E-04  0  0.2247E-04  0 -0.1053E-04  0 -0.6673E-05  1 -0.5046E-03
   (  1,  4,  2)  (  1, 30,  6)  (  1, 27,  3)  (  1, 20,  4)  (  1,  6, 15)
  0  0.1710E-03  0  0.7853E-04  0 -0.8039E-04  0  0.2496E-04  0  0.7240E-05
   (  1,  9,  4)  (  1,  8,  5)  (  1,  8,  5)  (  1,  8,  5)  (  1, 30,  6)
  1 -0.1751E-03  0  0.5386E-04  0  0.2589E-04  0 -0.2181E-04  0  0.5700E-05
   (  1,  6, 15)  (  1,  9,  4)  (  1,  8,  5)  (  1,  7, 14)  (  1,  6, 12)
  1 -0.5924E-04  0  0.9783E-05  1 -0.1172E-04  0 -0.1547E-04  0  0.7937E-05
   (  1,  6, 15)  (  1, 29,  4)  (  1,  6, 15)  (  1,  9,  4)  (  1,  9,  4)
  1  0.4901E-05
   (  1,  9,  4)

 MAXIMUM RESIDUAL FOR EACH ITERATION (1 INDICATES THE FIRST INNER ITERATION):

    RESIDUAL       RESIDUAL       RESIDUAL       RESIDUAL       RESIDUAL    
   LAYER,ROW,COL  LAYER,ROW,COL  LAYER,ROW,COL  LAYER,ROW,COL  LAYER,ROW,COL
 ---------------------------------------------------------------------------
  1  -868.8      0  -245.3      0  -72.30      0  -26.12      0  -8.446    
   (  1, 20, 15)  (  1, 20, 15)  (  1, 20, 15)  (  1, 20, 15)  (  1, 20, 15)
  0  -4.154      0  -2.020      0 -0.8161      0 -0.3734      0 -0.3178    
   (  1, 20, 15)  (  1, 20, 15)  (  1, 20, 15)  (  1, 20, 15)  (  1, 21, 15)
  0  0.1578      0  0.9769E-01  0  0.6006E-01  0  0.3200E-01  0  0.1725E-01
   (  1, 39, 15)  (  1, 39, 15)  (  1, 39, 15)  (  1, 39, 15)  (  1, 39, 15)
  0  0.8202E-02  0  0.3635E-02  0  0.3070E-02  0  0.1531E-02  1  -143.0    
   (  1, 39, 15)  (  1, 39, 15)  (  1, 39, 15)  (  1, 39, 15)  (  1, 20, 15)
  0  -118.9      0  -61.31      0  -28.15      0  -12.06      0  -5.040    
   (  1, 20, 15)  (  1, 20, 15)  (  1, 20, 15)  (  1, 20, 15)  (  1, 20, 15)
  0  -2.521      0  -1.204      0 -0.5188      0 -0.2842      0 -0.1984    
   (  1, 20, 15)  (  1, 20, 15)  (  1, 20, 15)  (  1, 20, 15)  (  1, 20, 15)
  0 -0.1069      0  0.4959E-01  0  0.2238E-01  0 -0.9125E-02  0 -0.3492E-02
   (  1, 20, 15)  (  1,  9, 12)  (  1,  9, 12)  (  1, 20, 15)  (  1, 20, 15)
  0  0.1686E-02  0  0.7326E-03  1  -55.45      0  -38.55      0  -23.81    
   (  1, 10, 11)  (  1, 10, 11)  (  1, 20, 15)  (  1, 20, 15)  (  1, 20, 15)
  0  -10.10      0  -4.180      0  -2.099      0  -1.018      0 -0.4707    
   (  1, 20, 15)  (  1, 20, 15)  (  1, 20, 15)  (  1, 20, 15)  (  1, 20, 15)
  0 -0.2115      0 -0.1066      0 -0.6888E-01  0 -0.4469E-01  0  0.1732E-01
   (  1, 20, 15)  (  1, 20, 15)  (  1, 20, 15)  (  1, 20, 15)  (  1,  9, 12)
  0  0.7783E-02  0 -0.3032E-02  0 -0.1214E-02  1  -13.42      0  -10.94    
   (  1,  9, 12)  (  1, 20, 15)  (  1, 20, 15)  (  1, 20, 15)  (  1, 20, 15)
  0  -6.907      0  -3.095      0  -1.285      0 -0.6470      0 -0.3243    
   (  1, 20, 15)  (  1, 20, 15)  (  1, 20, 15)  (  1, 20, 15)  (  1, 20, 15)
  0  0.1535      0 -0.6807E-01  0 -0.3488E-01  0 -0.2739E-01  0 -0.1489E-01
   (  1,  8, 13)  (  1, 20, 15)  (  1, 20, 15)  (  1, 20, 15)  (  1, 20, 15)
  0  0.5928E-02  0  0.2569E-02  1  -3.821      0  -3.244      0  -1.721    
   (  1,  9, 12)  (  1,  9, 12)  (  1, 20, 15)  (  1, 20, 15)  (  1, 20, 15)
  0  0.8702      0 -0.3782      0 -0.1753      0 -0.8981E-01  0  0.4998E-01
   (  1,  7, 14)  (  1, 20, 15)  (  1, 20, 15)  (  1, 20, 15)  (  1,  8, 13)
  0 -0.2085E-01  0 -0.9681E-02  0 -0.7218E-02  0 -0.4641E-02  0  0.2019E-02
   (  1, 20, 15)  (  1, 20, 15)  (  1, 20, 15)  (  1, 20, 15)  (  1,  9, 12)
  1  -1.312      0 -0.9861      0  0.5234      0  0.2174      0 -0.1050    
   (  1, 20, 15)  (  1, 20, 15)  (  1,  7, 14)  (  1,  7, 14)  (  1, 20, 15)
  0 -0.4743E-01  0  0.2453E-01  0  0.1265E-01  0 -0.5616E-02  0 -0.3897E-02
   (  1, 20, 15)  (  1,  8, 13)  (  1,  8, 13)  (  1, 20, 15)  (  1, 20, 15)
  0 -0.2320E-02  0 -0.1282E-02  1 -0.4168      0  0.3122      0  0.2035    
   (  1, 20, 15)  (  1, 20, 15)  (  1, 20, 15)  (  1,  7, 14)  (  1,  7, 14)
  0  0.1011      0 -0.3368E-01  0 -0.1698E-01  0  0.1131E-01  0  0.5606E-02
   (  1,  7, 14)  (  1, 20, 15)  (  1, 20, 15)  (  1,  8, 13)  (  1,  8, 13)
  0  0.2094E-02  1 -0.1204      0  0.1103      0  0.7648E-01  0  0.3522E-01
   (  1,  8, 13)  (  1, 20, 15)  (  1,  7, 14)  (  1,  7, 14)  (  1,  7, 14)
  0  0.1061E-01  0 -0.5654E-02  0  0.3919E-02  0  0.1937E-02  1  0.3896E-01
   (  1,  7, 14)  (  1, 20, 15)  (  1,  8, 13)  (  1,  8, 13)  (  1,  7, 14)
  0  0.3883E-01  0  0.2752E-01  0  0.1209E-01  0  0.3423E-02  0  0.1890E-02
   (  1,  7, 14)  (  1,  7, 14)  (  1,  7, 14)  (  1,  7, 14)  (  1,  8, 13)
  1  0.1431E-01  0  0.1360E-01  0  0.1073E-01  0  0.3625E-02  0  0.1185E-02
   (  1,  7, 14)  (  1,  7, 14)  (  1,  7, 14)  (  1,  7, 14)  (  1,  7, 14)
  1  0.5088E-02  0  0.4329E-02  1  0.5637E-02  0  0.2455E-02  0  0.8281E-03
   (  1,  7, 14)  (  1,  7, 14)  (  1,  6, 15)  (  1,  6, 15)  (  1,  7, 14)
  1  0.2031E-02
   (  1,  6, 15)



 OUTPUT CONTROL FOR STRESS PERIOD    3   TIME STEP    1
    SAVE HEAD FOR ALL LAYERS
    SAVE BUDGET
 UBDSV2 SAVING "   CONSTANT HEAD" ON UNIT  53 AT TIME STEP  1, STRESS PERIOD   3
 UBDSV1 SAVING "FLOW RIGHT FACE " ON UNIT  53 AT TIME STEP  1, STRESS PERIOD   3
 UBDSV1 SAVING "FLOW FRONT FACE " ON UNIT  53 AT TIME STEP  1, STRESS PERIOD   3

 HEAD WILL BE SAVED ON UNIT   51 AT END OF TIME STEP    1, STRESS PERIOD    3
1
  VOLUMETRIC BUDGET FOR ENTIRE MODEL AT END OF TIME STEP    1, STRESS PERIOD   3
  ------------------------------------------------------------------------------

     CUMULATIVE VOLUMES      L**3       RATES FOR THIS TIME STEP      L**3/T
     ------------------                 ------------------------

           IN:                                      IN:
           ---                                      ---
             STORAGE =     1029130.8125               STORAGE =           0.0000
       CONSTANT HEAD =       90722.0078         CONSTANT HEAD =          81.4072
               WELLS =           0.0000                 WELLS =           0.0000
       RIVER LEAKAGE =     1593380.1250         RIVER LEAKAGE =        1505.8339
            RECHARGE =     7427654.0000              RECHARGE =        4065.1018

            TOTAL IN =    10140887.0000              TOTAL IN =        5652.3428

          OUT:                                     OUT:
          ----                                     ----
             STORAGE =      130697.0625               STORAGE =           0.0000
       CONSTANT HEAD =      209926.9844         CONSTANT HEAD =         146.8886
               WELLS =     4234801.5000                 WELLS =        2327.2019
       RIVER LEAKAGE =     5565638.0000         RIVER LEAKAGE =        3178.2622
            RECHARGE =           0.0000              RECHARGE =           0.0000

           TOTAL OUT =    10141064.0000             TOTAL OUT =        5652.3525

            IN - OUT =        -177.0000              IN - OUT =      -9.7656E-03

 PERCENT DISCREPANCY =          -0.00     PERCENT DISCREPANCY =          -0.00






         TIME SUMMARY AT END OF TIME STEP    1 IN STRESS PERIOD    3
                    SECONDS     MINUTES      HOURS       DAYS        YEARS
                    -----------------------------------------------------------
   TIME STEP LENGTH  86400.      1440.0      24.000     1.00000     2.73785E-03
 STRESS PERIOD TIME  86400.      1440.0      24.000     1.00000     2.73785E-03
         TOTAL TIME 1.57853E+08 2.63088E+06  43848.      1827.0      5.0021    
1

 Run end date and time (yyyy/mm/dd hh:mm:ss): 2017/01/06 16:41:56
 Elapsed run time:  0.031 Seconds

