                                  MODFLOW-2005     
      U.S. GEOLOGICAL SURVEY MODULAR FINITE-DIFFERENCE GROUND-WATER FLOW MODEL
                            VERSION 1.11.00 8/8/2013

 LIST FILE: freyberg.list
                         UNIT    2

 OPENING freyberg.hyd
 FILE TYPE:HYD   UNIT   36   STATUS:OLD    
 FORMAT:FORMATTED              ACCESS:SEQUENTIAL          

 OPENING freyberg.dis
 FILE TYPE:DIS   UNIT   11   STATUS:OLD    
 FORMAT:FORMATTED              ACCESS:SEQUENTIAL          

 OPENING freyberg.lpf
 FILE TYPE:LPF   UNIT   31   STATUS:OLD    
 FORMAT:FORMATTED              ACCESS:SEQUENTIAL          

 OPENING freyberg.pcg
 FILE TYPE:PCG   UNIT   32   STATUS:OLD    
 FORMAT:FORMATTED              ACCESS:SEQUENTIAL          

 OPENING freyberg.bas
 FILE TYPE:BAS6   UNIT   13   STATUS:OLD    
 FORMAT:FORMATTED              ACCESS:SEQUENTIAL          

 OPENING freyberg.rch
 FILE TYPE:RCH   UNIT   19   STATUS:OLD    
 FORMAT:FORMATTED              ACCESS:SEQUENTIAL          

 OPENING freyberg.wel
 FILE TYPE:WEL   UNIT   20   STATUS:OLD    
 FORMAT:FORMATTED              ACCESS:SEQUENTIAL          

 OPENING freyberg.riv
 FILE TYPE:RIV   UNIT   18   STATUS:OLD    
 FORMAT:FORMATTED              ACCESS:SEQUENTIAL          

 OPENING freyberg.oc
 FILE TYPE:OC   UNIT   14   STATUS:OLD    
 FORMAT:FORMATTED              ACCESS:SEQUENTIAL          

 OPENING freyberg.hds
 FILE TYPE:DATA(BINARY)   UNIT   51   STATUS:REPLACE
 FORMAT:UNFORMATTED            ACCESS:STREAM              

 OPENING freyberg.ddn
 FILE TYPE:DATA(BINARY)   UNIT   52   STATUS:REPLACE
 FORMAT:UNFORMATTED            ACCESS:STREAM              

 OPENING freyberg.cbc
 FILE TYPE:DATA(BINARY)   UNIT   53   STATUS:REPLACE
 FORMAT:UNFORMATTED            ACCESS:STREAM              

 OPENING freyberg.hyd.bin
 FILE TYPE:DATA(BINARY)   UNIT  536   STATUS:REPLACE
 FORMAT:UNFORMATTED            ACCESS:STREAM              

 BAS -- BASIC PACKAGE, VERSION 7, 5/2/2005 INPUT READ FROM UNIT   13

 MODFLOW was compiled using mixed precision
 Precision of REAL variables:           6
 Precision of DOUBLE PRECISION variables:          15

 DISCRETIZATION INPUT DATA READ FROM UNIT   11
 # Discretization file for MODFLOW, generated by Flopy.
    1 LAYERS        40 ROWS        20 COLUMNS
    3 STRESS PERIOD(S) IN SIMULATION
 MODEL TIME UNIT IS DAYS
 MODEL LENGTH UNIT IS METERS
  Confining bed flag for each layer:
   0



                               DELR
 READING ON UNIT   11 WITH FORMAT: (20G15.6)           



                               DELC
 READING ON UNIT   11 WITH FORMAT: (40G15.6)           

 TOP ELEVATION OF LAYER 1 =   35.0000    

 OPENING FILE ON UNIT   99:
 botm.ref                                                                                                                                                                                                



             MODEL LAYER BOTTOM EL. FOR LAYER   1
 READING ON UNIT   99 WITH FORMAT: (10E12.4)           


 STRESS PERIOD     LENGTH       TIME STEPS     MULTIPLIER FOR DELT    SS FLAG
 ----------------------------------------------------------------------------
        1         1.000000          1                    1.000         SS
        2         1825.000          1                    1.000         TR
        3         1.000000          1                    1.000         SS

 COMBINED STEADY-STATE AND TRANSIENT SIMULATION




 # Basic package file for MODFLOW, generated by Flopy.                           
 THE FREE FORMAT OPTION HAS BEEN SELECTED

 OPENING FILE ON UNIT   99:
 ibound.ref                                                                                                                                                                                              



                     BOUNDARY ARRAY FOR LAYER   1
 READING ON UNIT   99 WITH FORMAT: (25I3)              

 AQUIFER HEAD WILL BE SET TO  -999.99     AT ALL NO-FLOW NODES (IBOUND=0).

 OPENING FILE ON UNIT   99:
 strt.ref                                                                                                                                                                                                



                       INITIAL HEAD FOR LAYER   1
 READING ON UNIT   99 WITH FORMAT: (10E12.4)           
 # Output control package file for MODFLOW, generated by Flopy.

 OUTPUT CONTROL IS SPECIFIED ONLY AT TIME STEPS FOR WHICH OUTPUT IS DESIRED
 COMPACT CELL-BY-CELL BUDGET FILES WILL BE WRITTEN
 AUXILIARY DATA WILL BE SAVED IN CELL-BY-CELL BUDGET FILES
 HEAD PRINT FORMAT CODE IS   0    DRAWDOWN PRINT FORMAT CODE IS   0
 HEADS WILL BE SAVED ON UNIT   51    DRAWDOWNS WILL BE SAVED ON UNIT   52

 LPF -- LAYER-PROPERTY FLOW PACKAGE, VERSION 7, 5/2/2005
         INPUT READ FROM UNIT   31
 # LPF for MODFLOW-2005, generated by Flopy.
 CELL-BY-CELL FLOWS WILL BE SAVED ON UNIT   53
 HEAD AT CELLS THAT CONVERT TO DRY= -1.00000E+30
 No named parameters

   LAYER FLAGS:
 LAYER       LAYTYP        LAYAVG         CHANI        LAYVKA        LAYWET
 ---------------------------------------------------------------------------
    1             1             0     1.000E+00             0             0

   INTERPRETATION OF LAYER FLAGS:
                        INTERBLOCK     HORIZONTAL    DATA IN
         LAYER TYPE   TRANSMISSIVITY   ANISOTROPY   ARRAY VKA   WETTABILITY
 LAYER      (LAYTYP)      (LAYAVG)       (CHANI)      (LAYVKA)      (LAYWET)
 ---------------------------------------------------------------------------
    1   CONVERTIBLE      HARMONIC     1.000E+00    VERTICAL K  NON-WETTABLE

 WETTING CAPABILITY IS NOT ACTIVE IN ANY LAYER

    HYD. COND. ALONG ROWS =   5.94751     FOR LAYER   1

      VERTICAL HYD. COND. =   1.00000     FOR LAYER   1

         SPECIFIC STORAGE =  1.000000E-04 FOR LAYER   1

           SPECIFIC YIELD =  0.250000     FOR LAYER   1

 WEL -- WELL PACKAGE, VERSION 7, 5/2/2005 INPUT READ FROM UNIT   20
 # Well file for MODFLOW, generated by Flopy.
 No named parameters
 MAXIMUM OF      6 ACTIVE WELLS AT ONE TIME


     0 Well parameters

 RIV -- RIVER PACKAGE, VERSION 7, 5/2/2005 INPUT READ FROM UNIT   18
 # RIV for MODFLOW, generated by Flopy.
 No named parameters
 MAXIMUM OF     40 ACTIVE RIVER REACHES AT ONE TIME


     0 River parameters

 RCH -- RECHARGE PACKAGE, VERSION 7, 5/2/2005 INPUT READ FROM UNIT   19
 # RCH for MODFLOW, generated by Flopy.
 No named parameters
 OPTION 2 -- RECHARGE TO ONE SPECIFIED NODE IN EACH VERTICAL COLUMN


     0 Recharge parameters

 PCG -- CONJUGATE-GRADIENT SOLUTION PACKAGE, VERSION 7, 5/2/2005
 MAXIMUM OF    100 CALLS OF SOLUTION ROUTINE
 MAXIMUM OF     25 INTERNAL ITERATIONS PER CALL TO SOLUTION ROUTINE
 MATRIX PRECONDITIONING TYPE :    1
 IHCOFADD option -- When an active cell is surrounded by dry cells, convert
 the cell to dry only if storage and head-dependent boundary flow are 0.



                                    SOLUTION BY THE CONJUGATE-GRADIENT METHOD
                                   -------------------------------------------
                    MAXIMUM NUMBER OF CALLS TO PCG ROUTINE =      100
                        MAXIMUM ITERATIONS PER CALL TO PCG =       25
                               MATRIX PRECONDITIONING TYPE =        1
        RELAXATION FACTOR (ONLY USED WITH PRECOND. TYPE 1) =    0.10000E+01
 PARAMETER OF POLYNOMIAL PRECOND. = 2 (2) OR IS CALCULATED :        2
                         HEAD CHANGE CRITERION FOR CLOSURE =    0.10000E-04
                     RESIDUAL CHANGE CRITERION FOR CLOSURE =    0.10000E+00
            PCG HEAD AND RESIDUAL CHANGE PRINTOUT INTERVAL =        5
     PRINTING FROM SOLVER IS LIMITED(1) OR SUPPRESSED (>1) =        0
                            STEADY-STATE DAMPING PARAMETER =    0.70000E+00
                               TRANSIENT DAMPING PARAMETER =    0.70000E+00

 HYD -- HYDROGRAPH DATA FOR BAS PACKAGE, VERSION 7, 07/14/2006
         INPUT READ FROM UNIT 36
 HYDROGRAPH VALUES WILL BE SAVED ON UNIT: 536
 HYDROGRAPH VALUES AT DRY CELLS WILL BE:  -1.00000E+07

 ARR INTYP  KLAY     XL            YL         HYDLBL
 ----------------------------------------------------------------
 HD   I      1   4.12500E+03   9.12500E+03  HDI001cr03c16       
 HD   I      1   2.62500E+03   9.12500E+03  HDI001cr03c10       
 HD   I      1   2.37500E+03   8.87500E+03  HDI001cr04c9        
 HD   I      1   6.25000E+02   7.37500E+03  HDI001cr10c2        
 HD   I      1   2.87500E+03   6.37500E+03  HDI001cr14c11       
 HD   I      1   4.37500E+03   5.87500E+03  HDI001cr16c17       
 HD   I      1   2.87500E+03   4.37500E+03  HDI001cr22c11       
 HD   I      1   4.12500E+03   4.12500E+03  HDI001cr23c16       
 HD   I      1   1.37500E+03   3.62500E+03  HDI001cr25c5        
 HD   I      1   1.87500E+03   3.12500E+03  HDI001cr27c7        
 HD   I      1   4.12500E+03   2.37500E+03  HDI001cr30c16       
 HD   I      1   2.12500E+03   1.37500E+03  HDI001cr34c8        
 HD   I      1   2.87500E+03   1.12500E+03  HDI001cr35c11       
 HD   I      1   4.12500E+03   9.12500E+03  HDI001fr03c16       
 HD   I      1   2.62500E+03   9.12500E+03  HDI001fr03c10       
 HD   I      1   2.37500E+03   8.87500E+03  HDI001fr04c9        
 HD   I      1   6.25000E+02   7.37500E+03  HDI001fr10c2        
 HD   I      1   2.87500E+03   6.37500E+03  HDI001fr14c11       
 HD   I      1   4.37500E+03   5.87500E+03  HDI001fr16c17       
 HD   I      1   2.87500E+03   4.37500E+03  HDI001fr22c11       
 HD   I      1   4.12500E+03   4.12500E+03  HDI001fr23c16       
 HD   I      1   1.37500E+03   3.62500E+03  HDI001fr25c5        
 HD   I      1   1.87500E+03   3.12500E+03  HDI001fr27c7        
 HD   I      1   4.12500E+03   2.37500E+03  HDI001fr30c16       
 HD   I      1   2.12500E+03   1.37500E+03  HDI001fr34c8        
 HD   I      1   2.87500E+03   1.12500E+03  HDI001fr35c11       
 HD   I      1   6.25000E+02   9.37500E+03  HDI001fr02c02       
 HD   I      1   3.37500E+03   9.62500E+03  HDI001fr01c13       
 HD   I      1   3.87500E+03   7.62500E+03  HDI001fr09c15       
 HD   I      1   2.62500E+03   3.62500E+03  HDI001fr25c10       
1
                            STRESS PERIOD NO.    1, LENGTH =   1.000000    
                            -----------------------------------------------

                              NUMBER OF TIME STEPS =     1

                               MULTIPLIER FOR DELT =     1.000

                            INITIAL TIME STEP SIZE =   1.000000    

 WELL NO.  LAYER   ROW   COL   STRESS RATE         
 --------------------------------------------------
      1      1      9     16      -708.5    
      2      1     11     13      -354.2    
      3      1     20     14      -337.0    
      4      1     26     10      -71.71    
      5      1     29      6      -62.21    
      6      1     34     12      -371.5    

      6 WELLS

 REACH NO.  LAYER   ROW   COL     STAGE      CONDUCTANCE     BOTTOM EL.         
 -------------------------------------------------------------------------------
      1      1      1     15       20.10           4511.           20.00    
      2      1      2     15       19.87           4511.           19.75    
      3      1      3     15       19.65           4511.           19.50    
      4      1      4     15       19.42           4511.           19.25    
      5      1      5     15       19.19           4511.           19.00    
      6      1      6     15       18.97           4511.           18.75    
      7      1      7     15       18.74           4511.           18.50    
      8      1      8     15       18.51           4511.           18.25    
      9      1      9     15       18.28           4511.           18.00    
     10      1     10     15       19.06           4511.           17.75    
     11      1     11     15       17.83           4511.           17.50    
     12      1     12     15       17.60           4511.           17.25    
     13      1     13     15       17.38           4511.           17.00    
     14      1     14     15       17.15           4511.           16.75    
     15      1     15     15       16.92           4511.           16.50    
     16      1     16     15       16.70           4511.           16.25    
     17      1     17     15       16.47           4511.           16.00    
     18      1     18     15       16.24           4511.           15.75    
     19      1     19     15       16.02           4511.           15.50    
     20      1     20     15       15.79           4511.           15.25    
     21      1     21     15       15.56           4511.           15.00    
     22      1     22     15       15.33           4511.           14.75    
     23      1     23     15       15.11           4511.           14.50    
     24      1     24     15       14.88           4511.           14.25    
     25      1     25     15       14.65           4511.           14.00    
     26      1     26     15       14.43           4511.           13.75    
     27      1     27     15       14.20           4511.           13.50    
     28      1     28     15       13.97           4511.           13.25    
     29      1     29     15       13.75           4511.           13.00    
     30      1     30     15       13.52           4511.           12.75    
     31      1     31     15       13.29           4511.           12.50    
     32      1     32     15       13.07           4511.           12.25    
     33      1     33     15       12.84           4511.           12.00    
     34      1     34     15       12.61           4511.           11.75    
     35      1     35     15       12.38           4511.           11.50    
     36      1     36     15       12.16           4511.           11.25    
     37      1     37     15       11.93           4511.           11.00    
     38      1     38     15       11.70           4511.           10.75    
     39      1     39     15       11.48           4511.           10.50    
     40      1     40     15       11.25           4511.           10.25    

     40 RIVER REACHES

                 RECHARGE =  1.382400E-04

 REUSING IRCH FROM LAST STRESS PERIOD

 SOLVING FOR HEAD 

 CELL CONVERSIONS FOR ITER.=  3  LAYER=  1  STEP=  1  PERIOD=   1   (ROW,COL)
    DRY( 10,  1)   

 CELL CONVERSIONS FOR ITER.=  4  LAYER=  1  STEP=  1  PERIOD=   1   (ROW,COL)
    DRY(  2,  1)   DRY(  3,  2)   DRY(  4,  2)   DRY(  4,  3)   DRY(  5,  1)   
    DRY(  8,  1)   DRY(  9,  1)   DRY( 11,  1)   DRY( 26,  1)   DRY( 29,  1)   

 CELL CONVERSIONS FOR ITER.=  5  LAYER=  1  STEP=  1  PERIOD=   1   (ROW,COL)
    DRY(  1,  3)   DRY(  5,  2)   DRY(  6,  2)   DRY( 22,  1)   DRY( 25,  1)   
    DRY( 30,  1)   

 CELL CONVERSIONS FOR ITER.=  6  LAYER=  1  STEP=  1  PERIOD=   1   (ROW,COL)
    DRY(  1,  2)   DRY( 16,  2)   DRY( 28,  1)   

 ISOLATED CELL IS BEING ELIMINATED (LAYER,ROW,COL):     1     1     1
 (PCG7AP)

 CELL CONVERSIONS FOR ITER.=  8  LAYER=  1  STEP=  1  PERIOD=   1   (ROW,COL)
    DRY( 27,  1)   


    17 CALLS TO PCG ROUTINE FOR TIME STEP   1 IN STRESS PERIOD    1
   204 TOTAL ITERATIONS

 MAXIMUM HEAD CHANGE FOR EACH ITERATION (1 INDICATES THE FIRST INNER ITERATION):

    HEAD CHANGE    HEAD CHANGE    HEAD CHANGE    HEAD CHANGE    HEAD CHANGE 
   LAYER,ROW,COL  LAYER,ROW,COL  LAYER,ROW,COL  LAYER,ROW,COL  LAYER,ROW,COL
 ---------------------------------------------------------------------------
  1  -50.18      0   20.54      0  -17.51      0   8.848      0  -2.957    
   (  1, 39, 11)  (  1, 31,  1)  (  1,  9,  4)  (  1, 19,  3)  (  1, 33,  2)
  0  -1.180      0 -0.5018      0 -0.2685      0 -0.1731      0 -0.6834E-01
   (  1, 30,  6)  (  1, 37,  5)  (  1, 37,  5)  (  1, 19,  4)  (  1,  8,  4)
  0  0.6564E-01  0 -0.2486E-01  0  0.1394E-01  0  0.8623E-02  0  0.2663E-02
   (  1,  9,  4)  (  1,  9,  4)  (  1, 32,  1)  (  1, 13,  3)  (  1, 35,  4)
  0  0.9413E-03  0 -0.5831E-03  0 -0.1710E-03  0  0.1374E-03  0 -0.1220E-03
   (  1,  4,  6)  (  1,  4,  5)  (  1,  5, 12)  (  1,  9,  4)  (  1,  9,  2)
  0 -0.3236E-04  0 -0.1081E-04  0  0.7734E-05  1  -13.81      0   7.855    
   (  1,  8,  4)  (  1, 15,  3)  (  1, 14,  2)  (  1, 39, 12)  (  1,  9,  4)
  0  -6.120      0   2.273      0 -0.9853      0 -0.3446      0 -0.1367    
   (  1,  9,  4)  (  1, 21,  4)  (  1, 32,  1)  (  1, 30,  7)  (  1, 37,  5)
  0 -0.6564E-01  0 -0.4702E-01  0  0.1978E-01  0  0.9710E-02  0 -0.7739E-02
   (  1, 37,  5)  (  1, 19,  4)  (  1, 14,  1)  (  1,  9,  4)  (  1,  9,  4)
  0  0.4486E-02  0 -0.2041E-02  0  0.7459E-03  0  0.2171E-03  0 -0.1246E-03
   (  1, 12,  3)  (  1,  5,  1)  (  1,  8,  4)  (  1, 24,  8)  (  1,  3,  5)
  0  0.3774E-04  0  0.2416E-04  0 -0.2908E-04  0 -0.6345E-05  1  -4.210    
   (  1,  4,  5)  (  1,  9,  4)  (  1,  9,  4)  (  1,  8,  5)  (  1, 34, 12)
  0   3.830      0  -1.989      0  0.6109      0 -0.2722      0  0.1275    
   (  1,  9,  4)  (  1,  9,  4)  (  1, 33,  2)  (  1, 15,  2)  (  1,  8,  5)
  0 -0.6309E-01  0 -0.1486E-01  0 -0.7479E-02  0 -0.3356E-02  0  0.3474E-02
   (  1,  8,  5)  (  1, 32,  5)  (  1, 33,  2)  (  1, 15,  4)  (  1,  9,  4)
  0 -0.2117E-02  0  0.4399E-03  0  0.2371E-03  0  0.8792E-04  0 -0.5647E-04
   (  1,  9,  4)  (  1, 30,  4)  (  1, 18,  4)  (  1, 31,  4)  (  1,  7,  3)
  0  0.2354E-04  0 -0.1115E-04  0 -0.1052E-04  0  0.6699E-05  1  -1.782    
   (  1, 33,  2)  (  1, 12,  2)  (  1,  9,  4)  (  1,  9,  1)  (  1, 34, 12)
  0  0.5700      0  0.1913      0 -0.2347      0  0.1040      0 -0.3417E-01
   (  1, 30,  7)  (  1, 39, 12)  (  1,  9,  4)  (  1,  9,  4)  (  1, 32,  1)
  0 -0.2009E-01  0 -0.1451E-01  0 -0.5648E-02  0 -0.2730E-02  0 -0.8908E-03
   (  1, 20,  1)  (  1, 17,  4)  (  1, 22,  1)  (  1, 16,  4)  (  1, 20,  1)
  0 -0.5729E-03  0 -0.1925E-03  0 -0.1463E-03  0 -0.5449E-04  0  0.2617E-04
   (  1, 14,  4)  (  1, 20,  1)  (  1,  9,  4)  (  1,  8,  5)  (  1,  8,  5)
  0 -0.1043E-04  0 -0.5153E-05  1 -0.8588      0 -0.4458      0  0.3442    
   (  1,  9,  4)  (  1, 16,  4)  (  1, 34, 12)  (  1,  9,  4)  (  1,  9,  4)
  0 -0.9920E-01  0 -0.3986E-01  0 -0.1226E-01  0 -0.6543E-02  0 -0.5069E-02
   (  1,  9,  4)  (  1, 20,  4)  (  1, 28,  1)  (  1, 33,  2)  (  1, 17,  4)
  0 -0.2280E-02  0 -0.1391E-02  0 -0.4881E-03  0 -0.2464E-03  0 -0.1275E-03
   (  1, 24,  1)  (  1, 16,  4)  (  1, 20,  1)  (  1,  8,  5)  (  1, 12,  4)
  0  0.1206E-03  0 -0.3935E-04  0 -0.2676E-04  0 -0.7518E-05  1 -0.3847    
   (  1,  9,  4)  (  1, 20,  1)  (  1, 16,  4)  (  1, 19,  1)  (  1, 34, 12)
  0 -0.4113      0  0.1700      0  0.3143E-01  0 -0.1886E-01  0 -0.4724E-02
   (  1,  9,  4)  (  1,  9,  4)  (  1, 34, 12)  (  1, 20,  4)  (  1, 24,  1)
  0 -0.2799E-02  0 -0.1672E-02  0 -0.7670E-03  0 -0.4743E-03  0 -0.2384E-03
   (  1, 33,  2)  (  1, 10,  4)  (  1, 24,  1)  (  1, 10,  4)  (  1, 18,  2)
  0 -0.1782E-03  0 -0.6060E-04  0 -0.6553E-04  0 -0.2142E-04  0 -0.1466E-04
   (  1,  9,  4)  (  1,  8,  5)  (  1, 16,  4)  (  1, 20,  1)  (  1, 16,  4)
  0 -0.3609E-05  1 -0.1593      0 -0.1919      0  0.6862E-01  0  0.1428E-01
   (  1, 19,  1)  (  1, 34, 12)  (  1,  9,  4)  (  1,  9,  4)  (  1, 34, 12)
  0 -0.7986E-02  0 -0.1813E-02  0 -0.1138E-02  0 -0.5736E-03  0 -0.2243E-03
   (  1, 21,  4)  (  1, 25,  2)  (  1, 33,  2)  (  1,  9,  4)  (  1, 24,  1)
  0 -0.1645E-03  0  0.8394E-04  0 -0.6261E-04  0 -0.3182E-04  0 -0.2239E-04
   (  1,  9,  4)  (  1,  9,  4)  (  1,  9,  4)  (  1,  8,  5)  (  1, 16,  4)
  0 -0.8961E-05  1 -0.6192E-01  0 -0.6746E-01  0  0.3389E-01  0  0.5994E-02
   (  1, 20,  1)  (  1, 34, 12)  (  1,  9,  4)  (  1,  9,  4)  (  1, 34, 12)
  0 -0.3232E-02  0  0.8506E-03  0 -0.4588E-03  0 -0.1415E-03  0  0.7226E-04
   (  1, 16,  1)  (  1, 22,  4)  (  1, 33,  2)  (  1,  8,  3)  (  1, 32,  1)
  0 -0.3010E-04  0  0.2871E-04  0 -0.1999E-04  0 -0.1066E-04  0  0.3235E-05
   (  1,  9,  4)  (  1,  9,  4)  (  1,  9,  4)  (  1,  8,  5)  (  1,  8,  4)
  1 -0.2317E-01  0 -0.1346E-01  0  0.1329E-01  0 -0.2785E-02  0 -0.1217E-02
   (  1, 34, 12)  (  1,  9,  2)  (  1,  9,  4)  (  1,  9,  4)  (  1, 16,  1)
  0  0.3855E-03  0 -0.1841E-03  0  0.5714E-04  0  0.3455E-04  0  0.1423E-04
   (  1, 22,  4)  (  1, 33,  2)  (  1, 25,  3)  (  1, 16,  1)  (  1,  8,  4)
  0 -0.8641E-05  1 -0.8308E-02  0  0.7583E-02  0 -0.4200E-02  0  0.1137E-02
   (  1,  8,  4)  (  1, 34, 12)  (  1,  9,  4)  (  1,  9,  4)  (  1, 11,  3)
  0 -0.4312E-03  0  0.1735E-03  0 -0.7261E-04  0  0.2602E-04  0  0.1789E-04
   (  1, 16,  1)  (  1, 21,  4)  (  1, 33,  2)  (  1, 24,  1)  (  1, 19,  4)
  0  0.9067E-05  1 -0.3198E-02  0  0.3490E-02  0 -0.1026E-02  0  0.3833E-03
   (  1,  8,  4)  (  1,  9,  4)  (  1,  9,  4)  (  1,  9,  4)  (  1, 10,  2)
  0 -0.1570E-03  0  0.8061E-04  0 -0.2793E-04  0  0.1061E-04  0  0.9161E-05
   (  1, 12,  2)  (  1, 19,  4)  (  1, 33,  2)  (  1, 24,  1)  (  1, 17,  4)
  1 -0.1233E-02  0  0.1202E-02  0 -0.3304E-03  0  0.1220E-03  0 -0.7588E-04
   (  1, 10,  4)  (  1,  9,  4)  (  1,  9,  4)  (  1, 10,  2)  (  1, 12,  3)
  0  0.3736E-04  0 -0.1064E-04  0  0.3536E-05  1 -0.3804E-03  0  0.3653E-03
   (  1, 18,  4)  (  1, 33,  2)  (  1, 25,  3)  (  1, 11,  3)  (  1,  9,  4)
  0 -0.2046E-03  0  0.3824E-04  0 -0.2935E-04  0  0.1331E-04  0 -0.4023E-05
   (  1,  9,  4)  (  1,  9,  4)  (  1, 12,  3)  (  1, 18,  4)  (  1, 33,  2)
  1 -0.1441E-03  0 -0.6386E-04  0  0.6206E-04  0 -0.2895E-04  0 -0.1062E-04
   (  1, 34, 12)  (  1,  9,  4)  (  1,  9,  4)  (  1, 10,  4)  (  1,  8,  5)
  0  0.3621E-05  1  0.6550E-04  0 -0.5972E-04  0  0.1882E-04  0  0.6577E-05
   (  1, 18,  4)  (  1,  9,  4)  (  1,  9,  4)  (  1, 10,  2)  (  1,  8,  4)
  1  0.2618E-04  0 -0.2329E-04  0  0.6186E-05  1  0.6093E-05
   (  1, 10,  4)  (  1,  9,  4)  (  1,  9,  4)  (  1, 11,  3)

 MAXIMUM RESIDUAL FOR EACH ITERATION (1 INDICATES THE FIRST INNER ITERATION):

    RESIDUAL       RESIDUAL       RESIDUAL       RESIDUAL       RESIDUAL    
   LAYER,ROW,COL  LAYER,ROW,COL  LAYER,ROW,COL  LAYER,ROW,COL  LAYER,ROW,COL
 ---------------------------------------------------------------------------
  1  -4774.      0  -2065.      0  -1536.      0  -757.7      0  -562.9    
   (  1, 39, 13)  (  1, 39,  9)  (  1, 39,  9)  (  1, 39,  7)  (  1, 39, 15)
  0  -424.0      0  -303.3      0  -184.2      0  -91.52      0  -45.17    
   (  1, 39, 15)  (  1, 39, 15)  (  1, 39, 15)  (  1, 39, 15)  (  1, 39, 15)
  0  -26.10      0  -20.15      0  -9.154      0  -3.200      0 -0.9924    
   (  1, 39, 15)  (  1, 39, 15)  (  1, 39, 15)  (  1, 39, 15)  (  1, 39, 15)
  0 -0.3295      0 -0.1020      0 -0.3461E-01  0 -0.2798E-01  0 -0.1597E-01
   (  1, 39, 15)  (  1, 39, 15)  (  1, 38, 15)  (  1, 38, 15)  (  1, 38, 15)
  0 -0.7749E-02  0 -0.3370E-02  0 -0.1272E-02  1  -969.3      0  -469.3    
   (  1, 38, 15)  (  1, 38, 15)  (  1, 38, 15)  (  1, 39, 13)  (  1, 39, 12)
  0  -313.2      0  -157.3      0  -119.6      0  -89.11      0  -62.08    
   (  1, 39,  9)  (  1, 39,  7)  (  1, 39, 15)  (  1, 39, 15)  (  1, 39, 15)
  0  -37.44      0  -17.46      0  -7.850      0  -4.571      0  -2.992    
   (  1, 39, 15)  (  1, 39, 15)  (  1, 39, 15)  (  1, 39, 15)  (  1, 39, 15)
  0  -1.290      0 -0.6248      0 -0.2134      0 -0.6538E-01  0 -0.2133E-01
   (  1, 39, 15)  (  1, 39, 15)  (  1, 39, 15)  (  1, 39, 15)  (  1, 39, 15)
  0 -0.7167E-02  0 -0.4283E-02  0 -0.3085E-02  0 -0.1394E-02  1  -207.0    
   (  1, 38, 15)  (  1, 38, 15)  (  1, 38, 15)  (  1, 38, 15)  (  1, 39, 13)
  0  -147.4      0  -73.26      0  -34.24      0  -25.41      0  -18.46    
   (  1, 39, 13)  (  1, 39,  9)  (  1, 39, 15)  (  1, 39, 15)  (  1, 39, 15)
  0  -12.49      0  -7.747      0  -3.560      0  -1.634      0  -1.313    
   (  1, 39, 15)  (  1, 39, 15)  (  1, 39, 15)  (  1, 39, 15)  (  1, 39, 15)
  0 -0.5937      0 -0.2185      0 -0.7991E-01  0 -0.3509E-01  0 -0.1362E-01
   (  1, 39, 15)  (  1, 39, 15)  (  1, 39, 15)  (  1, 39, 15)  (  1, 39, 15)
  0 -0.4410E-02  0 -0.1598E-02  0 -0.9851E-03  0 -0.5149E-03  1  -48.87    
   (  1, 39, 15)  (  1, 39, 15)  (  1, 39, 15)  (  1, 38, 15)  (  1, 39, 13)
  0  -25.67      0  -9.622      0  -8.043      0  -6.160      0  -3.965    
   (  1, 39, 12)  (  1, 39, 15)  (  1, 39, 15)  (  1, 39, 15)  (  1, 39, 15)
  0  -2.018      0 -0.7945      0 -0.1755      0  0.4217E-01  0  0.2499E-01
   (  1, 39, 15)  (  1, 39, 15)  (  1, 39, 15)  (  1,  9, 16)  (  1, 39, 15)
  0  0.2401E-01  0  0.1458E-01  0  0.9668E-02  0  0.6507E-02  0  0.3000E-02
   (  1, 39, 15)  (  1, 39, 15)  (  1, 39, 15)  (  1, 39, 15)  (  1, 39, 15)
  0  0.1489E-02  0  0.4811E-03  1  -27.13      0  -13.91      0  -8.901    
   (  1, 39, 15)  (  1, 39, 15)  (  1, 34, 12)  (  1, 34, 12)  (  1, 34, 12)
  0  -2.418      0  -1.833      0  -1.242      0 -0.7053      0 -0.3246    
   (  1, 39, 15)  (  1, 39, 15)  (  1, 39, 15)  (  1, 39, 15)  (  1, 39, 15)
  0 -0.1075      0 -0.3358E-01  0  0.1070E-01  0  0.5634E-02  0  0.4860E-02
   (  1, 39, 15)  (  1, 39, 15)  (  1,  9, 16)  (  1,  9, 16)  (  1, 39, 15)
  0  0.4431E-02  0  0.2779E-02  0  0.1435E-02  0  0.6363E-03  1   14.57    
   (  1, 39, 15)  (  1, 39, 15)  (  1, 39, 15)  (  1, 39, 15)  (  1, 34, 15)
  0  -9.331      0  -5.377      0  -1.639      0 -0.6136      0 -0.3588    
   (  1, 34, 12)  (  1, 34, 12)  (  1, 34, 12)  (  1,  9, 16)  (  1, 39, 15)
  0 -0.2151      0 -0.1107      0 -0.4758E-01  0 -0.2138E-01  0 -0.6930E-02
   (  1, 39, 15)  (  1, 39, 15)  (  1, 39, 15)  (  1, 39, 15)  (  1, 39, 15)
  0 -0.2671E-02  0  0.2068E-02  0  0.1056E-02  0  0.7426E-03  0  0.4756E-03
   (  1,  8, 17)  (  1,  9, 16)  (  1,  9, 16)  (  1, 39, 15)  (  1, 39, 15)
  0  0.2255E-03  1   8.734      0  -4.436      0  -2.629      0 -0.8793    
   (  1, 39, 15)  (  1, 34, 15)  (  1, 34, 12)  (  1, 34, 12)  (  1, 34, 12)
  0 -0.2869      0 -0.1603      0 -0.7618E-01  0 -0.3289E-01  0 -0.1611E-01
   (  1,  9, 16)  (  1,  9, 16)  (  1,  9, 16)  (  1, 39, 15)  (  1, 39, 15)
  0 -0.8428E-02  0 -0.3948E-02  0 -0.2650E-02  0 -0.1105E-02  0  0.2851E-03
   (  1, 39, 15)  (  1, 39, 15)  (  1, 39, 15)  (  1, 39, 15)  (  1,  9, 16)
  0  0.1524E-03  1   4.276      0   1.939      0  -1.163      0 -0.4105    
   (  1,  9, 16)  (  1, 34, 15)  (  1, 19, 15)  (  1, 34, 12)  (  1, 34, 12)
  0 -0.1226      0 -0.6893E-01  0 -0.3261E-01  0 -0.1341E-01  0 -0.4524E-02
   (  1,  9, 16)  (  1,  9, 16)  (  1,  9, 16)  (  1,  9, 16)  (  1, 39, 15)
  0 -0.2444E-02  0 -0.1250E-02  0 -0.9413E-03  0 -0.5337E-03  0 -0.2310E-03
   (  1, 39, 15)  (  1, 39, 15)  (  1, 39, 15)  (  1, 39, 15)  (  1, 39, 15)
  1   1.775      0  0.6318      0 -0.4636      0 -0.1735      0 -0.5064E-01
   (  1, 35, 15)  (  1, 19, 15)  (  1, 34, 12)  (  1, 34, 12)  (  1, 34, 12)
  0 -0.2783E-01  0 -0.1315E-01  0 -0.5468E-02  0 -0.1858E-02  0 -0.7027E-03
   (  1,  9, 16)  (  1,  9, 16)  (  1,  9, 16)  (  1,  9, 16)  (  1,  9, 16)
  0 -0.3485E-03  1  0.6914      0  0.2618      0 -0.1713      0 -0.6763E-01
   (  1, 39, 15)  (  1, 35, 15)  (  1, 19, 15)  (  1, 34, 12)  (  1, 34, 12)
  0  0.2102E-01  0 -0.1058E-01  0 -0.5040E-02  0 -0.2122E-02  0 -0.7250E-03
   (  1, 19, 15)  (  1,  9, 16)  (  1,  9, 16)  (  1,  9, 16)  (  1,  9, 16)
  0 -0.2716E-03  1  0.2603      0  0.1487      0  0.6523E-01  0 -0.2463E-01
   (  1,  9, 16)  (  1, 39, 15)  (  1, 34, 15)  (  1, 19, 15)  (  1, 34, 12)
  0  0.8862E-02  0  0.3937E-02  0 -0.1827E-02  0 -0.7923E-03  0 -0.2782E-03
   (  1, 19, 15)  (  1,  8, 17)  (  1,  9, 16)  (  1,  9, 16)  (  1,  9, 16)
  1  0.8951E-01  0  0.5495E-01  0  0.2399E-01  0  0.9308E-02  0  0.3631E-02
   (  1, 39, 15)  (  1, 34, 15)  (  1, 19, 15)  (  1, 19, 15)  (  1, 19, 15)
  0  0.1611E-02  0 -0.6134E-03  0 -0.2792E-03  1  0.2895E-01  0  0.1721E-01
   (  1,  8, 17)  (  1,  9, 16)  (  1,  9, 16)  (  1,  9, 16)  (  1, 34, 15)
  0  0.8420E-02  0  0.3351E-02  0  0.1397E-02  0  0.6524E-03  0  0.2446E-03
   (  1, 19, 15)  (  1, 19, 15)  (  1, 32, 15)  (  1,  8, 17)  (  1,  8, 17)
  1  0.1129E-01  0  0.3490E-02  0  0.2338E-02  0  0.1159E-02  0  0.5109E-03
   (  1,  9, 16)  (  1,  9, 16)  (  1, 35, 11)  (  1, 19, 15)  (  1,  8, 17)
  0  0.2569E-03  1  0.5044E-02  0  0.3058E-02  0  0.1171E-02  0  0.3973E-03
   (  1,  8, 17)  (  1,  9, 16)  (  1,  9, 16)  (  1, 35, 11)  (  1, 33, 13)
  1  0.2407E-02  0  0.1397E-02  0  0.4103E-03  1  0.1130E-02
   (  1,  9, 16)  (  1,  9, 16)  (  1, 35, 11)  (  1,  9, 16)



 OUTPUT CONTROL FOR STRESS PERIOD    1   TIME STEP    1
    SAVE HEAD FOR ALL LAYERS
    SAVE BUDGET
 UBDSV2 SAVING "   CONSTANT HEAD" ON UNIT  53 AT TIME STEP  1, STRESS PERIOD   1
 UBDSV1 SAVING "FLOW RIGHT FACE " ON UNIT  53 AT TIME STEP  1, STRESS PERIOD   1
 UBDSV1 SAVING "FLOW FRONT FACE " ON UNIT  53 AT TIME STEP  1, STRESS PERIOD   1

 HEAD WILL BE SAVED ON UNIT   51 AT END OF TIME STEP    1, STRESS PERIOD    1
1
  VOLUMETRIC BUDGET FOR ENTIRE MODEL AT END OF TIME STEP    1, STRESS PERIOD   1
  ------------------------------------------------------------------------------

     CUMULATIVE VOLUMES      L**3       RATES FOR THIS TIME STEP      L**3/T
     ------------------                 ------------------------

           IN:                                      IN:
           ---                                      ---
             STORAGE =           0.0000               STORAGE =           0.0000
       CONSTANT HEAD =         287.6401         CONSTANT HEAD =         287.6401
               WELLS =           0.0000                 WELLS =           0.0000
       RIVER LEAKAGE =        1768.7732         RIVER LEAKAGE =        1768.7732
            RECHARGE =           0.0000              RECHARGE =           0.0000

            TOTAL IN =        2056.4133              TOTAL IN =        2056.4133

          OUT:                                     OUT:
          ----                                     ----
             STORAGE =           0.0000               STORAGE =           0.0000
       CONSTANT HEAD =          13.2951         CONSTANT HEAD =          13.2951
               WELLS =        1905.1200                 WELLS =        1905.1200
       RIVER LEAKAGE =         138.0230         RIVER LEAKAGE =         138.0230
            RECHARGE =           0.0000              RECHARGE =           0.0000

           TOTAL OUT =        2056.4380             TOTAL OUT =        2056.4380

            IN - OUT =      -2.4658E-02              IN - OUT =      -2.4658E-02

 PERCENT DISCREPANCY =          -0.00     PERCENT DISCREPANCY =          -0.00






         TIME SUMMARY AT END OF TIME STEP    1 IN STRESS PERIOD    1
                    SECONDS     MINUTES      HOURS       DAYS        YEARS
                    -----------------------------------------------------------
   TIME STEP LENGTH  86400.      1440.0      24.000      1.0000     2.73785E-03
 STRESS PERIOD TIME  86400.      1440.0      24.000      1.0000     2.73785E-03
         TOTAL TIME  86400.      1440.0      24.000      1.0000     2.73785E-03
1
 A TOTAL OF  30 HYDROGRAPH POINTS HAVE BEEN PREPARED.
1
                            STRESS PERIOD NO.    2, LENGTH =   1825.000    
                            -----------------------------------------------

                              NUMBER OF TIME STEPS =     1

                               MULTIPLIER FOR DELT =     1.000

                            INITIAL TIME STEP SIZE =   1825.000    

 WELL NO.  LAYER   ROW   COL   STRESS RATE         
 --------------------------------------------------
      1      1      9     16      -885.6    
      2      1     11     13      -442.8    
      3      1     20     14      -421.2    
      4      1     26     10      -89.64    
      5      1     29      6      -77.76    
      6      1     34     12      -464.4    

      6 WELLS

 REUSING NON-PARAMETER RIVER REACHES FROM LAST STRESS PERIOD

     40 RIVER REACHES

                 RECHARGE =  9.000000E-05

 REUSING IRCH FROM LAST STRESS PERIOD

 SOLVING FOR HEAD 


    14 CALLS TO PCG ROUTINE FOR TIME STEP   1 IN STRESS PERIOD    2
    61 TOTAL ITERATIONS

 MAXIMUM HEAD CHANGE FOR EACH ITERATION (1 INDICATES THE FIRST INNER ITERATION):

    HEAD CHANGE    HEAD CHANGE    HEAD CHANGE    HEAD CHANGE    HEAD CHANGE 
   LAYER,ROW,COL  LAYER,ROW,COL  LAYER,ROW,COL  LAYER,ROW,COL  LAYER,ROW,COL
 ---------------------------------------------------------------------------
  1 -0.4516      0 -0.8426E-01  0 -0.1266E-01  0 -0.3409E-02  0 -0.5854E-03
   (  1, 34, 12)  (  1,  9, 16)  (  1,  8, 17)  (  1,  8, 17)  (  1,  7, 18)
  0  0.1081E-03  0 -0.1903E-04  0 -0.3849E-05  1 -0.1872      0 -0.3219E-01
   (  1, 37, 10)  (  1, 29, 11)  (  1,  6, 19)  (  1, 34, 12)  (  1,  9, 16)
  0 -0.5113E-02  0 -0.1342E-02  0 -0.2317E-03  0 -0.4111E-04  0 -0.6913E-05
   (  1,  8, 17)  (  1,  8, 17)  (  1,  7, 18)  (  1,  7, 18)  (  1, 29, 11)
  1 -0.7818E-01  0 -0.1219E-01  0 -0.2100E-02  0 -0.5308E-03  0 -0.9223E-04
   (  1,  9, 16)  (  1,  9, 16)  (  1,  8, 17)  (  1,  8, 17)  (  1,  7, 18)
  0 -0.1599E-04  0 -0.2517E-05  1 -0.3336E-01  0 -0.4577E-02  0 -0.8650E-03
   (  1,  7, 18)  (  1, 29, 11)  (  1,  9, 16)  (  1,  9, 16)  (  1,  8, 17)
  0 -0.2094E-03  0 -0.3672E-04  0 -0.6148E-05  1 -0.1416E-01  0 -0.1709E-02
   (  1,  8, 17)  (  1,  7, 18)  (  1,  7, 18)  (  1,  9, 16)  (  1,  9, 16)
  0 -0.3551E-03  0 -0.8218E-04  0 -0.1460E-04  0 -0.2348E-05  1 -0.5979E-02
   (  1,  8, 17)  (  1,  8, 17)  (  1,  7, 18)  (  1,  7, 18)  (  1,  9, 16)
  0  0.6385E-03  0 -0.1450E-03  0 -0.3208E-04  0 -0.5794E-05  1 -0.2512E-02
   (  1, 34, 12)  (  1,  8, 17)  (  1,  8, 17)  (  1,  7, 18)  (  1,  9, 16)
  0  0.2734E-03  0 -0.5895E-04  0 -0.1243E-04  0 -0.2296E-05  1 -0.1051E-02
   (  1, 34, 12)  (  1,  8, 17)  (  1,  8, 17)  (  1,  7, 18)  (  1,  9, 16)
  0  0.1146E-03  0 -0.2385E-04  0 -0.4796E-05  1 -0.4384E-03  0  0.4713E-04
   (  1, 34, 12)  (  1,  8, 17)  (  1,  8, 17)  (  1,  9, 16)  (  1, 34, 12)
  0 -0.9602E-05  1 -0.1821E-03  0  0.1937E-04  0 -0.3729E-05  1 -0.7541E-04
   (  1,  8, 17)  (  1,  9, 16)  (  1, 34, 12)  (  1,  8, 17)  (  1,  9, 16)
  0  0.7790E-05  1 -0.3119E-04  0  0.3260E-05  1 -0.1294E-04  0  0.1319E-05
   (  1, 34, 12)  (  1,  9, 16)  (  1, 34, 12)  (  1,  9, 16)  (  1, 34, 12)
  1 -0.5435E-05
   (  1,  9, 16)

 MAXIMUM RESIDUAL FOR EACH ITERATION (1 INDICATES THE FIRST INNER ITERATION):

    RESIDUAL       RESIDUAL       RESIDUAL       RESIDUAL       RESIDUAL    
   LAYER,ROW,COL  LAYER,ROW,COL  LAYER,ROW,COL  LAYER,ROW,COL  LAYER,ROW,COL
 ---------------------------------------------------------------------------
  1   23.47      0   3.320      0  0.9507      0  0.1456      0  0.3544E-01
   (  1,  9, 16)  (  1,  8, 17)  (  1,  8, 17)  (  1,  8, 17)  (  1,  9, 15)
  0  0.7725E-02  0  0.1708E-02  0  0.4115E-03  1   9.235      0   1.472    
   (  1,  9, 15)  (  1,  9, 15)  (  1,  9, 15)  (  1,  9, 16)  (  1,  8, 17)
  0  0.4008      0  0.5987E-01  0  0.1440E-01  0  0.2790E-02  0  0.5723E-03
   (  1,  8, 17)  (  1,  8, 17)  (  1,  7, 18)  (  1,  7, 18)  (  1,  6, 19)
  1   3.600      0  0.6461      0  0.1673      0  0.2393E-01  0  0.6100E-02
   (  1,  9, 16)  (  1,  8, 17)  (  1,  8, 17)  (  1,  8, 17)  (  1,  7, 18)
  0  0.1152E-02  0  0.2397E-03  1   1.385      0  0.2781      0  0.6868E-01
   (  1,  7, 18)  (  1,  6, 19)  (  1,  9, 16)  (  1,  8, 17)  (  1,  8, 17)
  0  0.1007E-01  0  0.2532E-02  0  0.4671E-03  1  0.5267      0  0.1176    
   (  1,  7, 18)  (  1,  7, 18)  (  1,  7, 18)  (  1,  9, 16)  (  1,  8, 17)
  0  0.2776E-01  0  0.4273E-02  0  0.1033E-02  0  0.1861E-03  1  0.1987    
   (  1,  8, 17)  (  1,  7, 18)  (  1,  7, 18)  (  1,  7, 18)  (  1,  9, 16)
  0  0.4896E-01  0  0.1108E-01  0  0.1787E-02  0  0.4160E-03  1  0.7447E-01
   (  1,  8, 17)  (  1,  8, 17)  (  1,  7, 18)  (  1,  7, 18)  (  1,  9, 16)
  0  0.2016E-01  0  0.4371E-02  0  0.7383E-03  0  0.1657E-03  1  0.2780E-01
   (  1,  8, 17)  (  1,  8, 17)  (  1,  7, 18)  (  1,  7, 18)  (  1,  9, 16)
  0  0.8233E-02  0  0.1711E-02  0  0.3026E-03  1  0.1034E-01  0  0.3339E-02
   (  1,  8, 17)  (  1,  8, 17)  (  1,  7, 18)  (  1,  9, 16)  (  1,  8, 17)
  0  0.6694E-03  1  0.4180E-02  0  0.1316E-02  0  0.2531E-03  1  0.1755E-02
   (  1,  8, 17)  (  1,  8, 17)  (  1,  8, 17)  (  1,  8, 17)  (  1,  8, 17)
  0  0.5169E-03  1  0.7266E-03  0  0.2387E-03  1  0.2983E-03  0  0.1056E-03
   (  1,  8, 17)  (  1,  8, 17)  (  1,  8, 17)  (  1,  8, 17)  (  1,  8, 17)
  1  0.1214E-03
   (  1,  8, 17)



 OUTPUT CONTROL FOR STRESS PERIOD    2   TIME STEP    1
    SAVE HEAD FOR ALL LAYERS
    SAVE BUDGET
 UBDSV1 SAVING "         STORAGE" ON UNIT  53 AT TIME STEP  1, STRESS PERIOD   2
 UBDSV2 SAVING "   CONSTANT HEAD" ON UNIT  53 AT TIME STEP  1, STRESS PERIOD   2
 UBDSV1 SAVING "FLOW RIGHT FACE " ON UNIT  53 AT TIME STEP  1, STRESS PERIOD   2
 UBDSV1 SAVING "FLOW FRONT FACE " ON UNIT  53 AT TIME STEP  1, STRESS PERIOD   2

 HEAD WILL BE SAVED ON UNIT   51 AT END OF TIME STEP    1, STRESS PERIOD    2
1
  VOLUMETRIC BUDGET FOR ENTIRE MODEL AT END OF TIME STEP    1, STRESS PERIOD   2
  ------------------------------------------------------------------------------

     CUMULATIVE VOLUMES      L**3       RATES FOR THIS TIME STEP      L**3/T
     ------------------                 ------------------------

           IN:                                      IN:
           ---                                      ---
             STORAGE =      360157.9062               STORAGE =         197.3468
       CONSTANT HEAD =      532400.9375         CONSTANT HEAD =         291.5689
               WELLS =           0.0000                 WELLS =           0.0000
       RIVER LEAKAGE =     3714922.7500         RIVER LEAKAGE =        2034.6050
            RECHARGE =           0.0000              RECHARGE =           0.0000

            TOTAL IN =     4607481.5000              TOTAL IN =        2523.5208

          OUT:                                     OUT:
          ----                                     ----
             STORAGE =           0.0000               STORAGE =           0.0000
       CONSTANT HEAD =       19818.8008         CONSTANT HEAD =          10.8523
               WELLS =     4347960.0000                 WELLS =        2381.3999
       RIVER LEAKAGE =      239884.5312         RIVER LEAKAGE =         131.3680
            RECHARGE =           0.0000              RECHARGE =           0.0000

           TOTAL OUT =     4607663.5000             TOTAL OUT =        2523.6201

            IN - OUT =        -182.0000              IN - OUT =      -9.9365E-02

 PERCENT DISCREPANCY =          -0.00     PERCENT DISCREPANCY =          -0.00






         TIME SUMMARY AT END OF TIME STEP    1 IN STRESS PERIOD    2
                    SECONDS     MINUTES      HOURS       DAYS        YEARS
                    -----------------------------------------------------------
   TIME STEP LENGTH 1.57680E+08 2.62800E+06  43800.      1825.0      4.9966    
 STRESS PERIOD TIME 1.57680E+08 2.62800E+06  43800.      1825.0      4.9966    
         TOTAL TIME 1.57766E+08 2.62944E+06  43824.      1826.0      4.9993    
1
1
                            STRESS PERIOD NO.    3, LENGTH =   1.000000    
                            -----------------------------------------------

                              NUMBER OF TIME STEPS =     1

                               MULTIPLIER FOR DELT =     1.000

                            INITIAL TIME STEP SIZE =   1.000000    

 WELL NO.  LAYER   ROW   COL   STRESS RATE         
 --------------------------------------------------
      1      1      9     16      -885.6    
      2      1     11     13      -442.8    
      3      1     20     14      -421.2    
      4      1     26     10      -89.64    
      5      1     29      6      -77.76    
      6      1     34     12      -464.4    

      6 WELLS

 REUSING NON-PARAMETER RIVER REACHES FROM LAST STRESS PERIOD

     40 RIVER REACHES

                 RECHARGE =  9.000000E-05

 REUSING IRCH FROM LAST STRESS PERIOD

 SOLVING FOR HEAD 

 CELL CONVERSIONS FOR ITER.=  2  LAYER=  1  STEP=  1  PERIOD=   3   (ROW,COL)
    DRY( 20,  1)   DRY( 24,  1)   


    14 CALLS TO PCG ROUTINE FOR TIME STEP   1 IN STRESS PERIOD    3
   117 TOTAL ITERATIONS

 MAXIMUM HEAD CHANGE FOR EACH ITERATION (1 INDICATES THE FIRST INNER ITERATION):

    HEAD CHANGE    HEAD CHANGE    HEAD CHANGE    HEAD CHANGE    HEAD CHANGE 
   LAYER,ROW,COL  LAYER,ROW,COL  LAYER,ROW,COL  LAYER,ROW,COL  LAYER,ROW,COL
 ---------------------------------------------------------------------------
  1 -0.1992      0 -0.1023      0  0.8620E-01  0 -0.3209E-01  0 -0.2402E-01
   (  1, 29,  6)  (  1, 32,  1)  (  1,  9,  4)  (  1, 25,  3)  (  1, 21,  4)
  0 -0.6366E-02  0 -0.2541E-02  0 -0.1619E-02  0 -0.7815E-03  0 -0.4727E-03
   (  1, 24,  1)  (  1, 20,  3)  (  1, 18,  3)  (  1, 24,  1)  (  1, 16,  4)
  0 -0.1932E-03  0 -0.1773E-03  0 -0.5752E-04  0 -0.4188E-04  0 -0.1876E-04
   (  1, 20,  1)  (  1,  9,  4)  (  1,  8,  5)  (  1, 18,  3)  (  1, 20,  1)
  0 -0.1519E-04  0 -0.2822E-05  1 -0.8099E-01  0 -0.7818E-01  0  0.3882E-01
   (  1, 16,  4)  (  1, 20,  1)  (  1, 29,  6)  (  1,  9,  4)  (  1,  9,  4)
  0 -0.1370E-01  0 -0.9493E-02  0 -0.2375E-02  0  0.1175E-02  0 -0.7390E-03
   (  1, 25,  3)  (  1, 21,  4)  (  1, 25,  2)  (  1,  8,  4)  (  1,  9,  4)
  0  0.2810E-03  0 -0.1762E-03  0 -0.1011E-03  0 -0.4534E-04  0  0.2198E-04
   (  1,  8,  4)  (  1, 10,  4)  (  1, 17,  1)  (  1, 22,  2)  (  1,  9,  4)
  0 -0.2361E-04  0 -0.8676E-05  1 -0.3276E-01  0 -0.3407E-01  0 -0.1493E-01
   (  1, 11,  4)  (  1, 19,  1)  (  1, 29,  6)  (  1,  9,  4)  (  1, 32,  1)
  0 -0.5265E-02  0 -0.3321E-02  0 -0.8152E-03  0  0.5900E-03  0 -0.2799E-03
   (  1, 25,  3)  (  1, 21,  4)  (  1, 27,  3)  (  1,  8,  4)  (  1,  8,  4)
  0  0.1308E-03  0 -0.5291E-04  0 -0.2502E-04  0  0.1551E-04  0 -0.1679E-04
   (  1,  9,  4)  (  1,  8,  4)  (  1, 17,  1)  (  1,  9,  4)  (  1,  9,  4)
  0 -0.5885E-05  1 -0.1422E-01  0 -0.1410E-01  0  0.8391E-02  0  0.2818E-02
   (  1, 16,  4)  (  1, 29,  6)  (  1,  9,  4)  (  1,  9,  4)  (  1, 16,  1)
  0  0.1153E-02  0  0.4055E-03  0  0.2290E-03  0  0.1152E-03  0  0.5341E-04
   (  1, 25,  2)  (  1, 24,  4)  (  1, 11,  4)  (  1, 25,  3)  (  1, 10,  4)
  0 -0.2090E-04  0  0.2107E-04  0 -0.1023E-04  0  0.6181E-05  1 -0.6347E-02
   (  1,  8,  4)  (  1,  9,  4)  (  1,  9,  4)  (  1, 15,  2)  (  1, 29,  6)
  0 -0.3333E-02  0  0.4120E-02  0  0.1363E-02  0  0.6699E-03  0  0.2841E-03
   (  1,  9,  3)  (  1,  9,  4)  (  1, 16,  1)  (  1, 25,  2)  (  1, 19,  1)
  0  0.1399E-03  0  0.6624E-04  0  0.4162E-04  0  0.1646E-04  0  0.9743E-05
   (  1, 14,  3)  (  1, 25,  3)  (  1, 18,  4)  (  1, 10,  4)  (  1, 16,  4)
  1 -0.2555E-02  0  0.2872E-02  0 -0.1312E-02  0  0.7291E-03  0  0.3257E-03
   (  1, 34, 12)  (  1,  9,  4)  (  1,  9,  4)  (  1, 17,  1)  (  1, 25,  2)
  0  0.1665E-03  0  0.7208E-04  0  0.3104E-04  0  0.2181E-04  0  0.8477E-05
   (  1, 17,  1)  (  1, 17,  1)  (  1, 19,  1)  (  1, 17,  4)  (  1, 19,  1)
  1 -0.1660E-02  0  0.1267E-02  0  0.3602E-03  0  0.2868E-03  0  0.1366E-03
   (  1,  9,  4)  (  1,  9,  4)  (  1, 25,  3)  (  1, 15,  4)  (  1, 25,  3)
  0  0.7812E-04  0  0.2885E-04  0  0.1211E-04  0  0.8950E-05  1 -0.6703E-03
   (  1, 17,  1)  (  1, 17,  1)  (  1, 21,  2)  (  1, 16,  4)  (  1, 11,  4)
  0  0.5216E-03  0 -0.1678E-03  0  0.7942E-04  0 -0.5277E-04  0  0.2665E-04
   (  1,  9,  4)  (  1,  9,  4)  (  1, 22,  4)  (  1, 12,  2)  (  1, 18,  4)
  0  0.6192E-05  1 -0.2546E-03  0  0.1456E-03  0 -0.1394E-03  0  0.3836E-04
   (  1, 26,  2)  (  1, 12,  2)  (  1,  9,  2)  (  1,  9,  4)  (  1,  9,  4)
  0 -0.2266E-04  0  0.5946E-05  1  0.1135E-03  0 -0.9957E-04  0  0.4188E-04
   (  1, 11,  4)  (  1, 19,  4)  (  1,  9,  4)  (  1,  9,  4)  (  1, 10,  2)
  0  0.1598E-04  0 -0.9902E-05  1  0.7151E-04  0 -0.4046E-04  0 -0.1523E-04
   (  1,  8,  4)  (  1,  8,  4)  (  1,  9,  4)  (  1,  9,  4)  (  1,  8,  5)
  0  0.6161E-05  1  0.2580E-04  0 -0.1707E-04  0  0.4930E-05  1  0.1113E-04
   (  1,  8,  4)  (  1, 10,  3)  (  1,  9,  4)  (  1,  9,  4)  (  1, 12,  2)
  0 -0.6738E-05  1  0.6058E-05
   (  1,  9,  4)  (  1,  9,  4)

 MAXIMUM RESIDUAL FOR EACH ITERATION (1 INDICATES THE FIRST INNER ITERATION):

    RESIDUAL       RESIDUAL       RESIDUAL       RESIDUAL       RESIDUAL    
   LAYER,ROW,COL  LAYER,ROW,COL  LAYER,ROW,COL  LAYER,ROW,COL  LAYER,ROW,COL
 ---------------------------------------------------------------------------
  1   3.273      0   1.978      0   1.559      0  0.8354      0  0.3927    
   (  1,  9, 16)  (  1,  9, 16)  (  1,  9, 16)  (  1,  9, 16)  (  1,  9, 15)
  0  0.1849      0  0.6439E-01  0  0.2765E-01  0 -0.1867E-01  0 -0.9683E-02
   (  1,  9, 15)  (  1, 19, 15)  (  1, 22, 15)  (  1, 39, 14)  (  1, 39, 14)
  0 -0.2379E-02  0 -0.1404E-02  0  0.9716E-03  0  0.1091E-02  0  0.5493E-03
   (  1, 39, 14)  (  1,  9, 16)  (  1, 38,  8)  (  1, 39, 14)  (  1, 39, 14)
  0 -0.1716E-03  0 -0.7691E-04  1   2.657      0   1.864      0   1.076    
   (  1, 19, 15)  (  1, 19, 15)  (  1,  9, 16)  (  1,  9, 16)  (  1,  9, 16)
  0  0.5423      0  0.2080      0  0.8208E-01  0  0.3221E-01  0  0.1455E-01
   (  1,  9, 16)  (  1,  9, 16)  (  1, 19, 15)  (  1, 19, 15)  (  1, 19, 15)
  0 -0.7236E-02  0 -0.4403E-02  0 -0.1744E-02  0 -0.6258E-03  0 -0.4100E-03
   (  1, 39, 14)  (  1, 39, 14)  (  1, 39, 14)  (  1,  9, 16)  (  1,  9, 16)
  0  0.4096E-03  0  0.2364E-03  1   1.937      0   1.169      0  0.5848    
   (  1, 39, 14)  (  1, 39, 14)  (  1, 34, 12)  (  1,  9, 16)  (  1,  9, 16)
  0  0.2780      0  0.1046      0  0.3381E-01  0  0.1561E-01  0  0.8274E-02
   (  1,  9, 16)  (  1,  9, 16)  (  1,  9, 16)  (  1, 32, 14)  (  1, 32, 14)
  0  0.3471E-02  0  0.1668E-02  0  0.7882E-03  0  0.4825E-03  0  0.3058E-03
   (  1, 19, 15)  (  1, 19, 15)  (  1, 19, 15)  (  1, 31, 15)  (  1, 31, 15)
  0  0.1123E-03  1   1.105      0  0.6039      0  0.2860      0  0.1444    
   (  1, 31, 15)  (  1, 34, 12)  (  1, 34, 12)  (  1,  9, 16)  (  1, 35, 11)
  0  0.5505E-01  0 -0.1650E-01  0  0.8946E-02  0  0.4162E-02  0  0.1130E-02
   (  1, 33, 13)  (  1, 33, 14)  (  1, 36, 10)  (  1, 32, 14)  (  1, 32, 14)
  0  0.6239E-03  0  0.3557E-03  0  0.2540E-03  0  0.1297E-03  1  0.5155    
   (  1, 31, 15)  (  1, 31, 15)  (  1, 31, 15)  (  1, 31, 15)  (  1, 34, 12)
  0  0.1906      0  0.1274      0  0.7331E-01  0  0.2612E-01  0 -0.8355E-02
   (  1,  9, 16)  (  1,  9, 16)  (  1, 35, 11)  (  1, 33, 13)  (  1, 33, 14)
  0  0.4597E-02  0  0.1900E-02  0 -0.6179E-03  0 -0.3059E-03  0 -0.1684E-03
   (  1, 36, 10)  (  1, 32, 14)  (  1, 31, 14)  (  1,  9, 16)  (  1, 32, 14)
  1  0.2407      0  0.1081      0  0.6057E-01  0  0.3395E-01  0  0.1139E-01
   (  1, 34, 12)  (  1, 34, 12)  (  1, 35, 11)  (  1, 35, 11)  (  1, 33, 13)
  0 -0.3964E-02  0  0.2176E-02  0  0.8777E-03  0 -0.3450E-03  0 -0.1712E-03
   (  1, 33, 14)  (  1, 36, 10)  (  1, 32, 14)  (  1, 31, 14)  (  1,  9, 16)
  1  0.1165      0  0.5708E-01  0  0.2795E-01  0  0.1490E-01  0  0.5079E-02
   (  1, 34, 12)  (  1, 34, 12)  (  1, 35, 11)  (  1, 33, 13)  (  1, 33, 13)
  0 -0.1779E-02  0  0.9470E-03  0  0.3564E-03  0 -0.1435E-03  1  0.4884E-01
   (  1, 33, 14)  (  1, 36, 10)  (  1, 32, 14)  (  1, 31, 14)  (  1, 34, 12)
  0  0.2356E-01  0  0.1236E-01  0  0.6174E-02  0  0.2256E-02  0 -0.7705E-03
   (  1, 34, 12)  (  1, 35, 11)  (  1, 33, 13)  (  1, 33, 13)  (  1, 33, 14)
  0  0.4114E-03  1  0.1668E-01  0  0.7284E-02  0  0.5395E-02  0  0.2456E-02
   (  1, 36, 10)  (  1, 34, 12)  (  1,  9, 16)  (  1, 35, 11)  (  1, 33, 13)
  0  0.8643E-03  0 -0.3207E-03  1  0.7628E-02  0  0.3765E-02  0  0.2362E-02
   (  1, 33, 13)  (  1, 33, 14)  (  1, 34, 12)  (  1,  9, 16)  (  1, 35, 11)
  0  0.9867E-03  0  0.3211E-03  1  0.4162E-02  0  0.1684E-02  0  0.1003E-02
   (  1, 33, 13)  (  1, 33, 13)  (  1, 34, 12)  (  1,  9, 16)  (  1, 35, 11)
  0  0.4309E-03  1  0.1854E-02  0  0.7857E-03  0  0.4079E-03  1  0.7892E-03
   (  1, 33, 13)  (  1, 34, 12)  (  1,  9, 16)  (  1, 35, 11)  (  1, 34, 12)
  0  0.3396E-03  1  0.6754E-03
   (  1,  9, 16)  (  1, 34, 12)



 OUTPUT CONTROL FOR STRESS PERIOD    3   TIME STEP    1
    SAVE HEAD FOR ALL LAYERS
    SAVE BUDGET
 UBDSV2 SAVING "   CONSTANT HEAD" ON UNIT  53 AT TIME STEP  1, STRESS PERIOD   3
 UBDSV1 SAVING "FLOW RIGHT FACE " ON UNIT  53 AT TIME STEP  1, STRESS PERIOD   3
 UBDSV1 SAVING "FLOW FRONT FACE " ON UNIT  53 AT TIME STEP  1, STRESS PERIOD   3

 HEAD WILL BE SAVED ON UNIT   51 AT END OF TIME STEP    1, STRESS PERIOD    3
1
  VOLUMETRIC BUDGET FOR ENTIRE MODEL AT END OF TIME STEP    1, STRESS PERIOD   3
  ------------------------------------------------------------------------------

     CUMULATIVE VOLUMES      L**3       RATES FOR THIS TIME STEP      L**3/T
     ------------------                 ------------------------

           IN:                                      IN:
           ---                                      ---
             STORAGE =      360157.9062               STORAGE =           0.0000
       CONSTANT HEAD =      532709.6875         CONSTANT HEAD =         308.7499
               WELLS =           0.0000                 WELLS =           0.0000
       RIVER LEAKAGE =     3717124.5000         RIVER LEAKAGE =        2201.6396
            RECHARGE =           0.0000              RECHARGE =           0.0000

            TOTAL IN =     4609992.0000              TOTAL IN =        2510.3896

          OUT:                                     OUT:
          ----                                     ----
             STORAGE =           0.0000               STORAGE =           0.0000
       CONSTANT HEAD =       19825.8262         CONSTANT HEAD =           7.0249
               WELLS =     4350341.5000                 WELLS =        2381.3999
       RIVER LEAKAGE =      240006.5000         RIVER LEAKAGE =         121.9648
            RECHARGE =           0.0000              RECHARGE =           0.0000

           TOTAL OUT =     4610174.0000             TOTAL OUT =        2510.3896

            IN - OUT =        -182.0000              IN - OUT =           0.0000

 PERCENT DISCREPANCY =          -0.00     PERCENT DISCREPANCY =           0.00






         TIME SUMMARY AT END OF TIME STEP    1 IN STRESS PERIOD    3
                    SECONDS     MINUTES      HOURS       DAYS        YEARS
                    -----------------------------------------------------------
   TIME STEP LENGTH  86400.      1440.0      24.000      1.0000     2.73785E-03
 STRESS PERIOD TIME  86400.      1440.0      24.000      1.0000     2.73785E-03
         TOTAL TIME 1.57853E+08 2.63088E+06  43848.      1827.0      5.0021    
1

 Run end date and time (yyyy/mm/dd hh:mm:ss): 2016/05/12 14:01:22
 Elapsed run time:  0.021 Seconds

