                                  MODFLOW-2005     
      U.S. GEOLOGICAL SURVEY MODULAR FINITE-DIFFERENCE GROUND-WATER FLOW MODEL
                            VERSION 1.11.00 8/8/2013

 LIST FILE: freyberg.list
                         UNIT    2

 OPENING freyberg.hyd
 FILE TYPE:HYD   UNIT   36   STATUS:OLD    
 FORMAT:FORMATTED              ACCESS:SEQUENTIAL          

 OPENING freyberg.dis
 FILE TYPE:DIS   UNIT   11   STATUS:OLD    
 FORMAT:FORMATTED              ACCESS:SEQUENTIAL          

 OPENING freyberg.lpf
 FILE TYPE:LPF   UNIT   31   STATUS:OLD    
 FORMAT:FORMATTED              ACCESS:SEQUENTIAL          

 OPENING freyberg.pcg
 FILE TYPE:PCG   UNIT   32   STATUS:OLD    
 FORMAT:FORMATTED              ACCESS:SEQUENTIAL          

 OPENING freyberg.bas
 FILE TYPE:BAS6   UNIT   13   STATUS:OLD    
 FORMAT:FORMATTED              ACCESS:SEQUENTIAL          

 OPENING freyberg.rch
 FILE TYPE:RCH   UNIT   19   STATUS:OLD    
 FORMAT:FORMATTED              ACCESS:SEQUENTIAL          

 OPENING freyberg.wel
 FILE TYPE:WEL   UNIT   20   STATUS:OLD    
 FORMAT:FORMATTED              ACCESS:SEQUENTIAL          

 OPENING freyberg.riv
 FILE TYPE:RIV   UNIT   18   STATUS:OLD    
 FORMAT:FORMATTED              ACCESS:SEQUENTIAL          

 OPENING freyberg.oc
 FILE TYPE:OC   UNIT   14   STATUS:OLD    
 FORMAT:FORMATTED              ACCESS:SEQUENTIAL          

 OPENING freyberg.hds
 FILE TYPE:DATA(BINARY)   UNIT   51   STATUS:REPLACE
 FORMAT:UNFORMATTED            ACCESS:STREAM              

 OPENING freyberg.ddn
 FILE TYPE:DATA(BINARY)   UNIT   52   STATUS:REPLACE
 FORMAT:UNFORMATTED            ACCESS:STREAM              

 OPENING freyberg.cbc
 FILE TYPE:DATA(BINARY)   UNIT   53   STATUS:REPLACE
 FORMAT:UNFORMATTED            ACCESS:STREAM              

 OPENING freyberg.hyd.bin
 FILE TYPE:DATA(BINARY)   UNIT  536   STATUS:REPLACE
 FORMAT:UNFORMATTED            ACCESS:STREAM              

 BAS -- BASIC PACKAGE, VERSION 7, 5/2/2005 INPUT READ FROM UNIT   13

 MODFLOW was compiled using mixed precision
 Precision of REAL variables:           6
 Precision of DOUBLE PRECISION variables:          15

 DISCRETIZATION INPUT DATA READ FROM UNIT   11
 # Discretization file for MODFLOW, generated by Flopy.
    1 LAYERS        40 ROWS        20 COLUMNS
    3 STRESS PERIOD(S) IN SIMULATION
 MODEL TIME UNIT IS DAYS
 MODEL LENGTH UNIT IS METERS
  Confining bed flag for each layer:
   0



                               DELR
 READING ON UNIT   11 WITH FORMAT: (20G15.6)           



                               DELC
 READING ON UNIT   11 WITH FORMAT: (40G15.6)           

 TOP ELEVATION OF LAYER 1 =   35.0000    

 OPENING FILE ON UNIT   99:
 botm.ref                                                                                                                                                                                                



             MODEL LAYER BOTTOM EL. FOR LAYER   1
 READING ON UNIT   99 WITH FORMAT: (10E12.4)           


 STRESS PERIOD     LENGTH       TIME STEPS     MULTIPLIER FOR DELT    SS FLAG
 ----------------------------------------------------------------------------
        1         1.000000          1                    1.000         SS
        2         1825.000          1                    1.000         TR
        3         1.000000          1                    1.000         SS

 COMBINED STEADY-STATE AND TRANSIENT SIMULATION




 # Basic package file for MODFLOW, generated by Flopy.                           
 THE FREE FORMAT OPTION HAS BEEN SELECTED

 OPENING FILE ON UNIT   99:
 ibound.ref                                                                                                                                                                                              



                     BOUNDARY ARRAY FOR LAYER   1
 READING ON UNIT   99 WITH FORMAT: (25I3)              

 AQUIFER HEAD WILL BE SET TO  -999.99     AT ALL NO-FLOW NODES (IBOUND=0).

 OPENING FILE ON UNIT   99:
 strt.ref                                                                                                                                                                                                



                       INITIAL HEAD FOR LAYER   1
 READING ON UNIT   99 WITH FORMAT: (10E12.4)           
 # Output control package file for MODFLOW, generated by Flopy.

 OUTPUT CONTROL IS SPECIFIED ONLY AT TIME STEPS FOR WHICH OUTPUT IS DESIRED
 COMPACT CELL-BY-CELL BUDGET FILES WILL BE WRITTEN
 AUXILIARY DATA WILL BE SAVED IN CELL-BY-CELL BUDGET FILES
 HEAD PRINT FORMAT CODE IS   0    DRAWDOWN PRINT FORMAT CODE IS   0
 HEADS WILL BE SAVED ON UNIT   51    DRAWDOWNS WILL BE SAVED ON UNIT   52

 LPF -- LAYER-PROPERTY FLOW PACKAGE, VERSION 7, 5/2/2005
         INPUT READ FROM UNIT   31
 # LPF for MODFLOW-2005, generated by Flopy.
 CELL-BY-CELL FLOWS WILL BE SAVED ON UNIT   53
 HEAD AT CELLS THAT CONVERT TO DRY= -1.00000E+30
 No named parameters

   LAYER FLAGS:
 LAYER       LAYTYP        LAYAVG         CHANI        LAYVKA        LAYWET
 ---------------------------------------------------------------------------
    1             1             0     1.000E+00             0             0

   INTERPRETATION OF LAYER FLAGS:
                        INTERBLOCK     HORIZONTAL    DATA IN
         LAYER TYPE   TRANSMISSIVITY   ANISOTROPY   ARRAY VKA   WETTABILITY
 LAYER      (LAYTYP)      (LAYAVG)       (CHANI)      (LAYVKA)      (LAYWET)
 ---------------------------------------------------------------------------
    1   CONVERTIBLE      HARMONIC     1.000E+00    VERTICAL K  NON-WETTABLE

 WETTING CAPABILITY IS NOT ACTIVE IN ANY LAYER

    HYD. COND. ALONG ROWS =   5.94751     FOR LAYER   1

      VERTICAL HYD. COND. =   1.00000     FOR LAYER   1

         SPECIFIC STORAGE =  1.000000E-04 FOR LAYER   1

           SPECIFIC YIELD =  0.250000     FOR LAYER   1

 WEL -- WELL PACKAGE, VERSION 7, 5/2/2005 INPUT READ FROM UNIT   20
 # Well file for MODFLOW, generated by Flopy.
 No named parameters
 MAXIMUM OF      6 ACTIVE WELLS AT ONE TIME


     0 Well parameters

 RIV -- RIVER PACKAGE, VERSION 7, 5/2/2005 INPUT READ FROM UNIT   18
 # RIV for MODFLOW, generated by Flopy.
 No named parameters
 MAXIMUM OF     40 ACTIVE RIVER REACHES AT ONE TIME


     0 River parameters

 RCH -- RECHARGE PACKAGE, VERSION 7, 5/2/2005 INPUT READ FROM UNIT   19
 # RCH for MODFLOW, generated by Flopy.
 No named parameters
 OPTION 3 -- RECHARGE TO HIGHEST ACTIVE NODE IN EACH VERTICAL COLUMN


     0 Recharge parameters

 PCG -- CONJUGATE-GRADIENT SOLUTION PACKAGE, VERSION 7, 5/2/2005
 MAXIMUM OF    100 CALLS OF SOLUTION ROUTINE
 MAXIMUM OF     25 INTERNAL ITERATIONS PER CALL TO SOLUTION ROUTINE
 MATRIX PRECONDITIONING TYPE :    1
 IHCOFADD option -- When an active cell is surrounded by dry cells, convert
 the cell to dry only if storage and head-dependent boundary flow are 0.



                                    SOLUTION BY THE CONJUGATE-GRADIENT METHOD
                                   -------------------------------------------
                    MAXIMUM NUMBER OF CALLS TO PCG ROUTINE =      100
                        MAXIMUM ITERATIONS PER CALL TO PCG =       25
                               MATRIX PRECONDITIONING TYPE =        1
        RELAXATION FACTOR (ONLY USED WITH PRECOND. TYPE 1) =    0.10000E+01
 PARAMETER OF POLYNOMIAL PRECOND. = 2 (2) OR IS CALCULATED :        2
                         HEAD CHANGE CRITERION FOR CLOSURE =    0.10000E-04
                     RESIDUAL CHANGE CRITERION FOR CLOSURE =    0.10000E+00
            PCG HEAD AND RESIDUAL CHANGE PRINTOUT INTERVAL =        5
     PRINTING FROM SOLVER IS LIMITED(1) OR SUPPRESSED (>1) =        0
                            STEADY-STATE DAMPING PARAMETER =    0.70000E+00
                               TRANSIENT DAMPING PARAMETER =    0.70000E+00

 HYD -- HYDROGRAPH DATA FOR BAS PACKAGE, VERSION 7, 07/14/2006
         INPUT READ FROM UNIT 36
 HYDROGRAPH VALUES WILL BE SAVED ON UNIT: 536
 HYDROGRAPH VALUES AT DRY CELLS WILL BE:  -1.00000E+07

 ARR INTYP  KLAY     XL            YL         HYDLBL
 ----------------------------------------------------------------
 HD   I      1   4.12500E+03   9.12500E+03  HDI001cr03c16       
 HD   I      1   2.62500E+03   9.12500E+03  HDI001cr03c10       
 HD   I      1   2.37500E+03   8.87500E+03  HDI001cr04c9        
 HD   I      1   6.25000E+02   7.37500E+03  HDI001cr10c2        
 HD   I      1   2.87500E+03   6.37500E+03  HDI001cr14c11       
 HD   I      1   4.37500E+03   5.87500E+03  HDI001cr16c17       
 HD   I      1   2.87500E+03   4.37500E+03  HDI001cr22c11       
 HD   I      1   4.12500E+03   4.12500E+03  HDI001cr23c16       
 HD   I      1   1.37500E+03   3.62500E+03  HDI001cr25c5        
 HD   I      1   1.87500E+03   3.12500E+03  HDI001cr27c7        
 HD   I      1   4.12500E+03   2.37500E+03  HDI001cr30c16       
 HD   I      1   2.12500E+03   1.37500E+03  HDI001cr34c8        
 HD   I      1   2.87500E+03   1.12500E+03  HDI001cr35c11       
 HD   I      1   4.12500E+03   9.12500E+03  HDI001fr03c16       
 HD   I      1   2.62500E+03   9.12500E+03  HDI001fr03c10       
 HD   I      1   2.37500E+03   8.87500E+03  HDI001fr04c9        
 HD   I      1   6.25000E+02   7.37500E+03  HDI001fr10c2        
 HD   I      1   2.87500E+03   6.37500E+03  HDI001fr14c11       
 HD   I      1   4.37500E+03   5.87500E+03  HDI001fr16c17       
 HD   I      1   2.87500E+03   4.37500E+03  HDI001fr22c11       
 HD   I      1   4.12500E+03   4.12500E+03  HDI001fr23c16       
 HD   I      1   1.37500E+03   3.62500E+03  HDI001fr25c5        
 HD   I      1   1.87500E+03   3.12500E+03  HDI001fr27c7        
 HD   I      1   4.12500E+03   2.37500E+03  HDI001fr30c16       
 HD   I      1   2.12500E+03   1.37500E+03  HDI001fr34c8        
 HD   I      1   2.87500E+03   1.12500E+03  HDI001fr35c11       
 HD   I      1   6.25000E+02   9.37500E+03  HDI001fr02c02       
 HD   I      1   3.37500E+03   9.62500E+03  HDI001fr01c13       
 HD   I      1   3.87500E+03   7.62500E+03  HDI001fr09c15       
 HD   I      1   2.62500E+03   3.62500E+03  HDI001fr25c10       
 HD   I      1   3.75000E+02   9.62500E+03  HDI001pr01c01       
 HD   I      1   6.25000E+02   9.62500E+03  HDI001pr01c02       
 HD   I      1   8.75000E+02   9.62500E+03  HDI001pr01c03       
 HD   I      1   1.12500E+03   9.62500E+03  HDI001pr01c04       
 HD   I      1   1.37500E+03   9.62500E+03  HDI001pr01c05       
 HD   I      1   1.62500E+03   9.62500E+03  HDI001pr01c06       
 HD   I      1   1.87500E+03   9.62500E+03  HDI001pr01c07       
 HD   I      1   2.12500E+03   9.62500E+03  HDI001pr01c08       
 HD   I      1   2.37500E+03   9.62500E+03  HDI001pr01c09       
 HD   I      1   2.62500E+03   9.62500E+03  HDI001pr01c10       
 HD   I      1   2.87500E+03   9.62500E+03  HDI001pr01c11       
 HD   I      1   3.12500E+03   9.62500E+03  HDI001pr01c12       
 HD   I      1   3.37500E+03   9.62500E+03  HDI001pr01c13       
 HD   I      1   3.62500E+03   9.62500E+03  HDI001pr01c14       
 HD   I      1   3.87500E+03   9.62500E+03  HDI001pr01c15       
 HD   I      1   4.12500E+03   9.62500E+03  HDI001pr01c16       
 HD   I      1   4.37500E+03   9.62500E+03  HDI001pr01c17       
 HD   I      1   4.62500E+03   9.62500E+03  HDI001pr01c18       
 HD   I      1   3.75000E+02   9.37500E+03  HDI001pr02c01       
 HD   I      1   6.25000E+02   9.37500E+03  HDI001pr02c02       
 HD   I      1   8.75000E+02   9.37500E+03  HDI001pr02c03       
 HD   I      1   1.12500E+03   9.37500E+03  HDI001pr02c04       
 HD   I      1   1.37500E+03   9.37500E+03  HDI001pr02c05       
 HD   I      1   1.62500E+03   9.37500E+03  HDI001pr02c06       
 HD   I      1   1.87500E+03   9.37500E+03  HDI001pr02c07       
 HD   I      1   2.12500E+03   9.37500E+03  HDI001pr02c08       
 HD   I      1   2.37500E+03   9.37500E+03  HDI001pr02c09       
 HD   I      1   2.62500E+03   9.37500E+03  HDI001pr02c10       
 HD   I      1   2.87500E+03   9.37500E+03  HDI001pr02c11       
 HD   I      1   3.12500E+03   9.37500E+03  HDI001pr02c12       
 HD   I      1   3.37500E+03   9.37500E+03  HDI001pr02c13       
 HD   I      1   3.62500E+03   9.37500E+03  HDI001pr02c14       
 HD   I      1   3.87500E+03   9.37500E+03  HDI001pr02c15       
 HD   I      1   4.12500E+03   9.37500E+03  HDI001pr02c16       
 HD   I      1   4.37500E+03   9.37500E+03  HDI001pr02c17       
 HD   I      1   4.62500E+03   9.37500E+03  HDI001pr02c18       
 HD   I      1   3.75000E+02   9.12500E+03  HDI001pr03c01       
 HD   I      1   6.25000E+02   9.12500E+03  HDI001pr03c02       
 HD   I      1   8.75000E+02   9.12500E+03  HDI001pr03c03       
 HD   I      1   1.12500E+03   9.12500E+03  HDI001pr03c04       
 HD   I      1   1.37500E+03   9.12500E+03  HDI001pr03c05       
 HD   I      1   1.62500E+03   9.12500E+03  HDI001pr03c06       
 HD   I      1   1.87500E+03   9.12500E+03  HDI001pr03c07       
 HD   I      1   2.12500E+03   9.12500E+03  HDI001pr03c08       
 HD   I      1   2.37500E+03   9.12500E+03  HDI001pr03c09       
 HD   I      1   2.62500E+03   9.12500E+03  HDI001pr03c10       
 HD   I      1   2.87500E+03   9.12500E+03  HDI001pr03c11       
 HD   I      1   3.12500E+03   9.12500E+03  HDI001pr03c12       
 HD   I      1   3.37500E+03   9.12500E+03  HDI001pr03c13       
 HD   I      1   3.62500E+03   9.12500E+03  HDI001pr03c14       
 HD   I      1   3.87500E+03   9.12500E+03  HDI001pr03c15       
 HD   I      1   4.12500E+03   9.12500E+03  HDI001pr03c16       
 HD   I      1   4.37500E+03   9.12500E+03  HDI001pr03c17       
 HD   I      1   4.62500E+03   9.12500E+03  HDI001pr03c18       
 HD   I      1   3.75000E+02   8.87500E+03  HDI001pr04c01       
 HD   I      1   6.25000E+02   8.87500E+03  HDI001pr04c02       
 HD   I      1   8.75000E+02   8.87500E+03  HDI001pr04c03       
 HD   I      1   1.12500E+03   8.87500E+03  HDI001pr04c04       
 HD   I      1   1.37500E+03   8.87500E+03  HDI001pr04c05       
 HD   I      1   1.62500E+03   8.87500E+03  HDI001pr04c06       
 HD   I      1   1.87500E+03   8.87500E+03  HDI001pr04c07       
 HD   I      1   2.12500E+03   8.87500E+03  HDI001pr04c08       
 HD   I      1   2.37500E+03   8.87500E+03  HDI001pr04c09       
 HD   I      1   2.62500E+03   8.87500E+03  HDI001pr04c10       
 HD   I      1   2.87500E+03   8.87500E+03  HDI001pr04c11       
 HD   I      1   3.12500E+03   8.87500E+03  HDI001pr04c12       
 HD   I      1   3.37500E+03   8.87500E+03  HDI001pr04c13       
 HD   I      1   3.62500E+03   8.87500E+03  HDI001pr04c14       
 HD   I      1   3.87500E+03   8.87500E+03  HDI001pr04c15       
 HD   I      1   4.12500E+03   8.87500E+03  HDI001pr04c16       
 HD   I      1   4.37500E+03   8.87500E+03  HDI001pr04c17       
 HD   I      1   4.62500E+03   8.87500E+03  HDI001pr04c18       
 HD   I      1   3.75000E+02   8.62500E+03  HDI001pr05c01       
 HD   I      1   6.25000E+02   8.62500E+03  HDI001pr05c02       
 HD   I      1   8.75000E+02   8.62500E+03  HDI001pr05c03       
 HD   I      1   1.12500E+03   8.62500E+03  HDI001pr05c04       
 HD   I      1   1.37500E+03   8.62500E+03  HDI001pr05c05       
 HD   I      1   1.62500E+03   8.62500E+03  HDI001pr05c06       
 HD   I      1   1.87500E+03   8.62500E+03  HDI001pr05c07       
 HD   I      1   2.12500E+03   8.62500E+03  HDI001pr05c08       
 HD   I      1   2.37500E+03   8.62500E+03  HDI001pr05c09       
 HD   I      1   2.62500E+03   8.62500E+03  HDI001pr05c10       
 HD   I      1   2.87500E+03   8.62500E+03  HDI001pr05c11       
 HD   I      1   3.12500E+03   8.62500E+03  HDI001pr05c12       
 HD   I      1   3.37500E+03   8.62500E+03  HDI001pr05c13       
 HD   I      1   3.62500E+03   8.62500E+03  HDI001pr05c14       
 HD   I      1   3.87500E+03   8.62500E+03  HDI001pr05c15       
 HD   I      1   4.12500E+03   8.62500E+03  HDI001pr05c16       
 HD   I      1   4.37500E+03   8.62500E+03  HDI001pr05c17       
 HD   I      1   4.62500E+03   8.62500E+03  HDI001pr05c18       
 HD   I      1   3.75000E+02   8.37500E+03  HDI001pr06c01       
 HD   I      1   6.25000E+02   8.37500E+03  HDI001pr06c02       
 HD   I      1   8.75000E+02   8.37500E+03  HDI001pr06c03       
 HD   I      1   1.12500E+03   8.37500E+03  HDI001pr06c04       
 HD   I      1   1.37500E+03   8.37500E+03  HDI001pr06c05       
 HD   I      1   1.62500E+03   8.37500E+03  HDI001pr06c06       
 HD   I      1   1.87500E+03   8.37500E+03  HDI001pr06c07       
 HD   I      1   2.12500E+03   8.37500E+03  HDI001pr06c08       
 HD   I      1   2.37500E+03   8.37500E+03  HDI001pr06c09       
 HD   I      1   2.62500E+03   8.37500E+03  HDI001pr06c10       
 HD   I      1   2.87500E+03   8.37500E+03  HDI001pr06c11       
 HD   I      1   3.12500E+03   8.37500E+03  HDI001pr06c12       
 HD   I      1   3.37500E+03   8.37500E+03  HDI001pr06c13       
 HD   I      1   3.62500E+03   8.37500E+03  HDI001pr06c14       
 HD   I      1   3.87500E+03   8.37500E+03  HDI001pr06c15       
 HD   I      1   4.12500E+03   8.37500E+03  HDI001pr06c16       
 HD   I      1   4.37500E+03   8.37500E+03  HDI001pr06c17       
 HD   I      1   4.62500E+03   8.37500E+03  HDI001pr06c18       
 HD   I      1   3.75000E+02   8.12500E+03  HDI001pr07c01       
 HD   I      1   6.25000E+02   8.12500E+03  HDI001pr07c02       
 HD   I      1   8.75000E+02   8.12500E+03  HDI001pr07c03       
 HD   I      1   1.12500E+03   8.12500E+03  HDI001pr07c04       
 HD   I      1   1.37500E+03   8.12500E+03  HDI001pr07c05       
 HD   I      1   1.62500E+03   8.12500E+03  HDI001pr07c06       
 HD   I      1   1.87500E+03   8.12500E+03  HDI001pr07c07       
 HD   I      1   2.12500E+03   8.12500E+03  HDI001pr07c08       
 HD   I      1   2.37500E+03   8.12500E+03  HDI001pr07c09       
 HD   I      1   2.62500E+03   8.12500E+03  HDI001pr07c10       
 HD   I      1   2.87500E+03   8.12500E+03  HDI001pr07c11       
 HD   I      1   3.12500E+03   8.12500E+03  HDI001pr07c12       
 HD   I      1   3.37500E+03   8.12500E+03  HDI001pr07c13       
 HD   I      1   3.62500E+03   8.12500E+03  HDI001pr07c14       
 HD   I      1   3.87500E+03   8.12500E+03  HDI001pr07c15       
 HD   I      1   4.12500E+03   8.12500E+03  HDI001pr07c16       
 HD   I      1   4.37500E+03   8.12500E+03  HDI001pr07c17       
 HD   I      1   4.62500E+03   8.12500E+03  HDI001pr07c18       
 HD   I      1   3.75000E+02   7.87500E+03  HDI001pr08c01       
 HD   I      1   6.25000E+02   7.87500E+03  HDI001pr08c02       
 HD   I      1   8.75000E+02   7.87500E+03  HDI001pr08c03       
 HD   I      1   1.87500E+03   7.87500E+03  HDI001pr08c07       
 HD   I      1   2.12500E+03   7.87500E+03  HDI001pr08c08       
 HD   I      1   2.37500E+03   7.87500E+03  HDI001pr08c09       
 HD   I      1   2.62500E+03   7.87500E+03  HDI001pr08c10       
 HD   I      1   2.87500E+03   7.87500E+03  HDI001pr08c11       
 HD   I      1   3.12500E+03   7.87500E+03  HDI001pr08c12       
 HD   I      1   3.37500E+03   7.87500E+03  HDI001pr08c13       
 HD   I      1   3.62500E+03   7.87500E+03  HDI001pr08c14       
 HD   I      1   3.87500E+03   7.87500E+03  HDI001pr08c15       
 HD   I      1   4.12500E+03   7.87500E+03  HDI001pr08c16       
 HD   I      1   4.37500E+03   7.87500E+03  HDI001pr08c17       
 HD   I      1   4.62500E+03   7.87500E+03  HDI001pr08c18       
 HD   I      1   3.75000E+02   7.62500E+03  HDI001pr09c01       
 HD   I      1   6.25000E+02   7.62500E+03  HDI001pr09c02       
 HD   I      1   8.75000E+02   7.62500E+03  HDI001pr09c03       
 HD   I      1   2.12500E+03   7.62500E+03  HDI001pr09c08       
 HD   I      1   2.37500E+03   7.62500E+03  HDI001pr09c09       
 HD   I      1   2.62500E+03   7.62500E+03  HDI001pr09c10       
 HD   I      1   2.87500E+03   7.62500E+03  HDI001pr09c11       
 HD   I      1   3.12500E+03   7.62500E+03  HDI001pr09c12       
 HD   I      1   3.37500E+03   7.62500E+03  HDI001pr09c13       
 HD   I      1   3.62500E+03   7.62500E+03  HDI001pr09c14       
 HD   I      1   3.87500E+03   7.62500E+03  HDI001pr09c15       
 HD   I      1   4.12500E+03   7.62500E+03  HDI001pr09c16       
 HD   I      1   4.37500E+03   7.62500E+03  HDI001pr09c17       
 HD   I      1   4.62500E+03   7.62500E+03  HDI001pr09c18       
 HD   I      1   3.75000E+02   7.37500E+03  HDI001pr10c01       
 HD   I      1   6.25000E+02   7.37500E+03  HDI001pr10c02       
 HD   I      1   8.75000E+02   7.37500E+03  HDI001pr10c03       
 HD   I      1   2.12500E+03   7.37500E+03  HDI001pr10c08       
 HD   I      1   2.37500E+03   7.37500E+03  HDI001pr10c09       
 HD   I      1   2.62500E+03   7.37500E+03  HDI001pr10c10       
 HD   I      1   2.87500E+03   7.37500E+03  HDI001pr10c11       
 HD   I      1   3.12500E+03   7.37500E+03  HDI001pr10c12       
 HD   I      1   3.37500E+03   7.37500E+03  HDI001pr10c13       
 HD   I      1   3.62500E+03   7.37500E+03  HDI001pr10c14       
 HD   I      1   3.87500E+03   7.37500E+03  HDI001pr10c15       
 HD   I      1   4.12500E+03   7.37500E+03  HDI001pr10c16       
 HD   I      1   4.37500E+03   7.37500E+03  HDI001pr10c17       
 HD   I      1   4.62500E+03   7.37500E+03  HDI001pr10c18       
 HD   I      1   3.75000E+02   7.12500E+03  HDI001pr11c01       
 HD   I      1   6.25000E+02   7.12500E+03  HDI001pr11c02       
 HD   I      1   8.75000E+02   7.12500E+03  HDI001pr11c03       
 HD   I      1   2.12500E+03   7.12500E+03  HDI001pr11c08       
 HD   I      1   2.37500E+03   7.12500E+03  HDI001pr11c09       
 HD   I      1   2.62500E+03   7.12500E+03  HDI001pr11c10       
 HD   I      1   2.87500E+03   7.12500E+03  HDI001pr11c11       
 HD   I      1   3.12500E+03   7.12500E+03  HDI001pr11c12       
 HD   I      1   3.37500E+03   7.12500E+03  HDI001pr11c13       
 HD   I      1   3.62500E+03   7.12500E+03  HDI001pr11c14       
 HD   I      1   3.87500E+03   7.12500E+03  HDI001pr11c15       
 HD   I      1   4.12500E+03   7.12500E+03  HDI001pr11c16       
 HD   I      1   4.37500E+03   7.12500E+03  HDI001pr11c17       
 HD   I      1   4.62500E+03   7.12500E+03  HDI001pr11c18       
 HD   I      1   3.75000E+02   6.87500E+03  HDI001pr12c01       
 HD   I      1   6.25000E+02   6.87500E+03  HDI001pr12c02       
 HD   I      1   8.75000E+02   6.87500E+03  HDI001pr12c03       
 HD   I      1   2.12500E+03   6.87500E+03  HDI001pr12c08       
 HD   I      1   2.37500E+03   6.87500E+03  HDI001pr12c09       
 HD   I      1   2.62500E+03   6.87500E+03  HDI001pr12c10       
 HD   I      1   2.87500E+03   6.87500E+03  HDI001pr12c11       
 HD   I      1   3.12500E+03   6.87500E+03  HDI001pr12c12       
 HD   I      1   3.37500E+03   6.87500E+03  HDI001pr12c13       
 HD   I      1   3.62500E+03   6.87500E+03  HDI001pr12c14       
 HD   I      1   3.87500E+03   6.87500E+03  HDI001pr12c15       
 HD   I      1   4.12500E+03   6.87500E+03  HDI001pr12c16       
 HD   I      1   4.37500E+03   6.87500E+03  HDI001pr12c17       
 HD   I      1   4.62500E+03   6.87500E+03  HDI001pr12c18       
 HD   I      1   3.75000E+02   6.62500E+03  HDI001pr13c01       
 HD   I      1   6.25000E+02   6.62500E+03  HDI001pr13c02       
 HD   I      1   8.75000E+02   6.62500E+03  HDI001pr13c03       
 HD   I      1   2.12500E+03   6.62500E+03  HDI001pr13c08       
 HD   I      1   2.37500E+03   6.62500E+03  HDI001pr13c09       
 HD   I      1   2.62500E+03   6.62500E+03  HDI001pr13c10       
 HD   I      1   2.87500E+03   6.62500E+03  HDI001pr13c11       
 HD   I      1   3.12500E+03   6.62500E+03  HDI001pr13c12       
 HD   I      1   3.37500E+03   6.62500E+03  HDI001pr13c13       
 HD   I      1   3.62500E+03   6.62500E+03  HDI001pr13c14       
 HD   I      1   3.87500E+03   6.62500E+03  HDI001pr13c15       
 HD   I      1   4.12500E+03   6.62500E+03  HDI001pr13c16       
 HD   I      1   4.37500E+03   6.62500E+03  HDI001pr13c17       
 HD   I      1   4.62500E+03   6.62500E+03  HDI001pr13c18       
 HD   I      1   3.75000E+02   6.37500E+03  HDI001pr14c01       
 HD   I      1   6.25000E+02   6.37500E+03  HDI001pr14c02       
 HD   I      1   8.75000E+02   6.37500E+03  HDI001pr14c03       
 HD   I      1   2.12500E+03   6.37500E+03  HDI001pr14c08       
 HD   I      1   2.37500E+03   6.37500E+03  HDI001pr14c09       
 HD   I      1   2.62500E+03   6.37500E+03  HDI001pr14c10       
 HD   I      1   2.87500E+03   6.37500E+03  HDI001pr14c11       
 HD   I      1   3.12500E+03   6.37500E+03  HDI001pr14c12       
 HD   I      1   3.37500E+03   6.37500E+03  HDI001pr14c13       
 HD   I      1   3.62500E+03   6.37500E+03  HDI001pr14c14       
 HD   I      1   3.87500E+03   6.37500E+03  HDI001pr14c15       
 HD   I      1   4.12500E+03   6.37500E+03  HDI001pr14c16       
 HD   I      1   4.37500E+03   6.37500E+03  HDI001pr14c17       
 HD   I      1   4.62500E+03   6.37500E+03  HDI001pr14c18       
 HD   I      1   3.75000E+02   6.12500E+03  HDI001pr15c01       
 HD   I      1   6.25000E+02   6.12500E+03  HDI001pr15c02       
 HD   I      1   8.75000E+02   6.12500E+03  HDI001pr15c03       
 HD   I      1   2.12500E+03   6.12500E+03  HDI001pr15c08       
 HD   I      1   2.37500E+03   6.12500E+03  HDI001pr15c09       
 HD   I      1   2.62500E+03   6.12500E+03  HDI001pr15c10       
 HD   I      1   2.87500E+03   6.12500E+03  HDI001pr15c11       
 HD   I      1   3.12500E+03   6.12500E+03  HDI001pr15c12       
 HD   I      1   3.37500E+03   6.12500E+03  HDI001pr15c13       
 HD   I      1   3.62500E+03   6.12500E+03  HDI001pr15c14       
 HD   I      1   3.87500E+03   6.12500E+03  HDI001pr15c15       
 HD   I      1   4.12500E+03   6.12500E+03  HDI001pr15c16       
 HD   I      1   4.37500E+03   6.12500E+03  HDI001pr15c17       
 HD   I      1   4.62500E+03   6.12500E+03  HDI001pr15c18       
 HD   I      1   3.75000E+02   5.87500E+03  HDI001pr16c01       
 HD   I      1   6.25000E+02   5.87500E+03  HDI001pr16c02       
 HD   I      1   8.75000E+02   5.87500E+03  HDI001pr16c03       
 HD   I      1   2.12500E+03   5.87500E+03  HDI001pr16c08       
 HD   I      1   2.37500E+03   5.87500E+03  HDI001pr16c09       
 HD   I      1   2.62500E+03   5.87500E+03  HDI001pr16c10       
 HD   I      1   2.87500E+03   5.87500E+03  HDI001pr16c11       
 HD   I      1   3.12500E+03   5.87500E+03  HDI001pr16c12       
 HD   I      1   3.37500E+03   5.87500E+03  HDI001pr16c13       
 HD   I      1   3.62500E+03   5.87500E+03  HDI001pr16c14       
 HD   I      1   3.87500E+03   5.87500E+03  HDI001pr16c15       
 HD   I      1   4.12500E+03   5.87500E+03  HDI001pr16c16       
 HD   I      1   4.37500E+03   5.87500E+03  HDI001pr16c17       
 HD   I      1   4.62500E+03   5.87500E+03  HDI001pr16c18       
 HD   I      1   3.75000E+02   5.62500E+03  HDI001pr17c01       
 HD   I      1   6.25000E+02   5.62500E+03  HDI001pr17c02       
 HD   I      1   8.75000E+02   5.62500E+03  HDI001pr17c03       
 HD   I      1   2.12500E+03   5.62500E+03  HDI001pr17c08       
 HD   I      1   2.37500E+03   5.62500E+03  HDI001pr17c09       
 HD   I      1   2.62500E+03   5.62500E+03  HDI001pr17c10       
 HD   I      1   2.87500E+03   5.62500E+03  HDI001pr17c11       
 HD   I      1   3.12500E+03   5.62500E+03  HDI001pr17c12       
 HD   I      1   3.37500E+03   5.62500E+03  HDI001pr17c13       
 HD   I      1   3.62500E+03   5.62500E+03  HDI001pr17c14       
 HD   I      1   3.87500E+03   5.62500E+03  HDI001pr17c15       
 HD   I      1   4.12500E+03   5.62500E+03  HDI001pr17c16       
 HD   I      1   4.37500E+03   5.62500E+03  HDI001pr17c17       
 HD   I      1   4.62500E+03   5.62500E+03  HDI001pr17c18       
 HD   I      1   3.75000E+02   5.37500E+03  HDI001pr18c01       
 HD   I      1   6.25000E+02   5.37500E+03  HDI001pr18c02       
 HD   I      1   8.75000E+02   5.37500E+03  HDI001pr18c03       
 HD   I      1   2.12500E+03   5.37500E+03  HDI001pr18c08       
 HD   I      1   2.37500E+03   5.37500E+03  HDI001pr18c09       
 HD   I      1   2.62500E+03   5.37500E+03  HDI001pr18c10       
 HD   I      1   2.87500E+03   5.37500E+03  HDI001pr18c11       
 HD   I      1   3.12500E+03   5.37500E+03  HDI001pr18c12       
 HD   I      1   3.37500E+03   5.37500E+03  HDI001pr18c13       
 HD   I      1   3.62500E+03   5.37500E+03  HDI001pr18c14       
 HD   I      1   3.87500E+03   5.37500E+03  HDI001pr18c15       
 HD   I      1   4.12500E+03   5.37500E+03  HDI001pr18c16       
 HD   I      1   4.37500E+03   5.37500E+03  HDI001pr18c17       
 HD   I      1   4.62500E+03   5.37500E+03  HDI001pr18c18       
 HD   I      1   3.75000E+02   5.12500E+03  HDI001pr19c01       
 HD   I      1   6.25000E+02   5.12500E+03  HDI001pr19c02       
 HD   I      1   8.75000E+02   5.12500E+03  HDI001pr19c03       
 HD   I      1   2.12500E+03   5.12500E+03  HDI001pr19c08       
 HD   I      1   2.37500E+03   5.12500E+03  HDI001pr19c09       
 HD   I      1   2.62500E+03   5.12500E+03  HDI001pr19c10       
 HD   I      1   2.87500E+03   5.12500E+03  HDI001pr19c11       
 HD   I      1   3.12500E+03   5.12500E+03  HDI001pr19c12       
 HD   I      1   3.37500E+03   5.12500E+03  HDI001pr19c13       
 HD   I      1   3.62500E+03   5.12500E+03  HDI001pr19c14       
 HD   I      1   3.87500E+03   5.12500E+03  HDI001pr19c15       
 HD   I      1   4.12500E+03   5.12500E+03  HDI001pr19c16       
 HD   I      1   4.37500E+03   5.12500E+03  HDI001pr19c17       
 HD   I      1   4.62500E+03   5.12500E+03  HDI001pr19c18       
 HD   I      1   3.75000E+02   4.87500E+03  HDI001pr20c01       
 HD   I      1   6.25000E+02   4.87500E+03  HDI001pr20c02       
 HD   I      1   8.75000E+02   4.87500E+03  HDI001pr20c03       
 HD   I      1   2.12500E+03   4.87500E+03  HDI001pr20c08       
 HD   I      1   2.37500E+03   4.87500E+03  HDI001pr20c09       
 HD   I      1   2.62500E+03   4.87500E+03  HDI001pr20c10       
 HD   I      1   2.87500E+03   4.87500E+03  HDI001pr20c11       
 HD   I      1   3.12500E+03   4.87500E+03  HDI001pr20c12       
 HD   I      1   3.37500E+03   4.87500E+03  HDI001pr20c13       
 HD   I      1   3.62500E+03   4.87500E+03  HDI001pr20c14       
 HD   I      1   3.87500E+03   4.87500E+03  HDI001pr20c15       
 HD   I      1   4.12500E+03   4.87500E+03  HDI001pr20c16       
 HD   I      1   4.37500E+03   4.87500E+03  HDI001pr20c17       
 HD   I      1   4.62500E+03   4.87500E+03  HDI001pr20c18       
 HD   I      1   3.75000E+02   4.62500E+03  HDI001pr21c01       
 HD   I      1   6.25000E+02   4.62500E+03  HDI001pr21c02       
 HD   I      1   8.75000E+02   4.62500E+03  HDI001pr21c03       
 HD   I      1   1.62500E+03   4.62500E+03  HDI001pr21c06       
 HD   I      1   1.87500E+03   4.62500E+03  HDI001pr21c07       
 HD   I      1   2.12500E+03   4.62500E+03  HDI001pr21c08       
 HD   I      1   2.37500E+03   4.62500E+03  HDI001pr21c09       
 HD   I      1   2.62500E+03   4.62500E+03  HDI001pr21c10       
 HD   I      1   2.87500E+03   4.62500E+03  HDI001pr21c11       
 HD   I      1   3.12500E+03   4.62500E+03  HDI001pr21c12       
 HD   I      1   3.37500E+03   4.62500E+03  HDI001pr21c13       
 HD   I      1   3.62500E+03   4.62500E+03  HDI001pr21c14       
 HD   I      1   3.87500E+03   4.62500E+03  HDI001pr21c15       
 HD   I      1   4.12500E+03   4.62500E+03  HDI001pr21c16       
 HD   I      1   4.37500E+03   4.62500E+03  HDI001pr21c17       
 HD   I      1   4.62500E+03   4.62500E+03  HDI001pr21c18       
 HD   I      1   3.75000E+02   4.37500E+03  HDI001pr22c01       
 HD   I      1   6.25000E+02   4.37500E+03  HDI001pr22c02       
 HD   I      1   8.75000E+02   4.37500E+03  HDI001pr22c03       
 HD   I      1   1.12500E+03   4.37500E+03  HDI001pr22c04       
 HD   I      1   1.62500E+03   4.37500E+03  HDI001pr22c06       
 HD   I      1   1.87500E+03   4.37500E+03  HDI001pr22c07       
 HD   I      1   2.12500E+03   4.37500E+03  HDI001pr22c08       
 HD   I      1   2.37500E+03   4.37500E+03  HDI001pr22c09       
 HD   I      1   2.62500E+03   4.37500E+03  HDI001pr22c10       
 HD   I      1   2.87500E+03   4.37500E+03  HDI001pr22c11       
 HD   I      1   3.12500E+03   4.37500E+03  HDI001pr22c12       
 HD   I      1   3.37500E+03   4.37500E+03  HDI001pr22c13       
 HD   I      1   3.62500E+03   4.37500E+03  HDI001pr22c14       
 HD   I      1   3.87500E+03   4.37500E+03  HDI001pr22c15       
 HD   I      1   4.12500E+03   4.37500E+03  HDI001pr22c16       
 HD   I      1   4.37500E+03   4.37500E+03  HDI001pr22c17       
 HD   I      1   4.62500E+03   4.37500E+03  HDI001pr22c18       
 HD   I      1   3.75000E+02   4.12500E+03  HDI001pr23c01       
 HD   I      1   6.25000E+02   4.12500E+03  HDI001pr23c02       
 HD   I      1   8.75000E+02   4.12500E+03  HDI001pr23c03       
 HD   I      1   1.12500E+03   4.12500E+03  HDI001pr23c04       
 HD   I      1   1.37500E+03   4.12500E+03  HDI001pr23c05       
 HD   I      1   1.62500E+03   4.12500E+03  HDI001pr23c06       
 HD   I      1   1.87500E+03   4.12500E+03  HDI001pr23c07       
 HD   I      1   2.12500E+03   4.12500E+03  HDI001pr23c08       
 HD   I      1   2.37500E+03   4.12500E+03  HDI001pr23c09       
 HD   I      1   2.62500E+03   4.12500E+03  HDI001pr23c10       
 HD   I      1   2.87500E+03   4.12500E+03  HDI001pr23c11       
 HD   I      1   3.12500E+03   4.12500E+03  HDI001pr23c12       
 HD   I      1   3.37500E+03   4.12500E+03  HDI001pr23c13       
 HD   I      1   3.62500E+03   4.12500E+03  HDI001pr23c14       
 HD   I      1   3.87500E+03   4.12500E+03  HDI001pr23c15       
 HD   I      1   4.12500E+03   4.12500E+03  HDI001pr23c16       
 HD   I      1   4.37500E+03   4.12500E+03  HDI001pr23c17       
 HD   I      1   4.62500E+03   4.12500E+03  HDI001pr23c18       
 HD   I      1   3.75000E+02   3.87500E+03  HDI001pr24c01       
 HD   I      1   6.25000E+02   3.87500E+03  HDI001pr24c02       
 HD   I      1   8.75000E+02   3.87500E+03  HDI001pr24c03       
 HD   I      1   1.12500E+03   3.87500E+03  HDI001pr24c04       
 HD   I      1   1.37500E+03   3.87500E+03  HDI001pr24c05       
 HD   I      1   1.62500E+03   3.87500E+03  HDI001pr24c06       
 HD   I      1   1.87500E+03   3.87500E+03  HDI001pr24c07       
 HD   I      1   2.12500E+03   3.87500E+03  HDI001pr24c08       
 HD   I      1   2.37500E+03   3.87500E+03  HDI001pr24c09       
 HD   I      1   2.62500E+03   3.87500E+03  HDI001pr24c10       
 HD   I      1   2.87500E+03   3.87500E+03  HDI001pr24c11       
 HD   I      1   3.12500E+03   3.87500E+03  HDI001pr24c12       
 HD   I      1   3.37500E+03   3.87500E+03  HDI001pr24c13       
 HD   I      1   3.62500E+03   3.87500E+03  HDI001pr24c14       
 HD   I      1   3.87500E+03   3.87500E+03  HDI001pr24c15       
 HD   I      1   4.12500E+03   3.87500E+03  HDI001pr24c16       
 HD   I      1   4.37500E+03   3.87500E+03  HDI001pr24c17       
 HD   I      1   4.62500E+03   3.87500E+03  HDI001pr24c18       
 HD   I      1   3.75000E+02   3.62500E+03  HDI001pr25c01       
 HD   I      1   6.25000E+02   3.62500E+03  HDI001pr25c02       
 HD   I      1   8.75000E+02   3.62500E+03  HDI001pr25c03       
 HD   I      1   1.12500E+03   3.62500E+03  HDI001pr25c04       
 HD   I      1   1.37500E+03   3.62500E+03  HDI001pr25c05       
 HD   I      1   1.62500E+03   3.62500E+03  HDI001pr25c06       
 HD   I      1   1.87500E+03   3.62500E+03  HDI001pr25c07       
 HD   I      1   2.12500E+03   3.62500E+03  HDI001pr25c08       
 HD   I      1   2.37500E+03   3.62500E+03  HDI001pr25c09       
 HD   I      1   2.62500E+03   3.62500E+03  HDI001pr25c10       
 HD   I      1   2.87500E+03   3.62500E+03  HDI001pr25c11       
 HD   I      1   3.12500E+03   3.62500E+03  HDI001pr25c12       
 HD   I      1   3.37500E+03   3.62500E+03  HDI001pr25c13       
 HD   I      1   3.62500E+03   3.62500E+03  HDI001pr25c14       
 HD   I      1   3.87500E+03   3.62500E+03  HDI001pr25c15       
 HD   I      1   4.12500E+03   3.62500E+03  HDI001pr25c16       
 HD   I      1   4.37500E+03   3.62500E+03  HDI001pr25c17       
 HD   I      1   4.62500E+03   3.62500E+03  HDI001pr25c18       
 HD   I      1   3.75000E+02   3.37500E+03  HDI001pr26c01       
 HD   I      1   6.25000E+02   3.37500E+03  HDI001pr26c02       
 HD   I      1   8.75000E+02   3.37500E+03  HDI001pr26c03       
 HD   I      1   1.12500E+03   3.37500E+03  HDI001pr26c04       
 HD   I      1   1.37500E+03   3.37500E+03  HDI001pr26c05       
 HD   I      1   1.62500E+03   3.37500E+03  HDI001pr26c06       
 HD   I      1   1.87500E+03   3.37500E+03  HDI001pr26c07       
 HD   I      1   2.12500E+03   3.37500E+03  HDI001pr26c08       
 HD   I      1   2.37500E+03   3.37500E+03  HDI001pr26c09       
 HD   I      1   2.62500E+03   3.37500E+03  HDI001pr26c10       
 HD   I      1   2.87500E+03   3.37500E+03  HDI001pr26c11       
 HD   I      1   3.12500E+03   3.37500E+03  HDI001pr26c12       
 HD   I      1   3.37500E+03   3.37500E+03  HDI001pr26c13       
 HD   I      1   3.62500E+03   3.37500E+03  HDI001pr26c14       
 HD   I      1   3.87500E+03   3.37500E+03  HDI001pr26c15       
 HD   I      1   4.12500E+03   3.37500E+03  HDI001pr26c16       
 HD   I      1   4.37500E+03   3.37500E+03  HDI001pr26c17       
 HD   I      1   4.62500E+03   3.37500E+03  HDI001pr26c18       
 HD   I      1   3.75000E+02   3.12500E+03  HDI001pr27c01       
 HD   I      1   6.25000E+02   3.12500E+03  HDI001pr27c02       
 HD   I      1   8.75000E+02   3.12500E+03  HDI001pr27c03       
 HD   I      1   1.12500E+03   3.12500E+03  HDI001pr27c04       
 HD   I      1   1.37500E+03   3.12500E+03  HDI001pr27c05       
 HD   I      1   1.62500E+03   3.12500E+03  HDI001pr27c06       
 HD   I      1   1.87500E+03   3.12500E+03  HDI001pr27c07       
 HD   I      1   2.12500E+03   3.12500E+03  HDI001pr27c08       
 HD   I      1   2.37500E+03   3.12500E+03  HDI001pr27c09       
 HD   I      1   2.62500E+03   3.12500E+03  HDI001pr27c10       
 HD   I      1   2.87500E+03   3.12500E+03  HDI001pr27c11       
 HD   I      1   3.12500E+03   3.12500E+03  HDI001pr27c12       
 HD   I      1   3.37500E+03   3.12500E+03  HDI001pr27c13       
 HD   I      1   3.62500E+03   3.12500E+03  HDI001pr27c14       
 HD   I      1   3.87500E+03   3.12500E+03  HDI001pr27c15       
 HD   I      1   4.12500E+03   3.12500E+03  HDI001pr27c16       
 HD   I      1   4.37500E+03   3.12500E+03  HDI001pr27c17       
 HD   I      1   4.62500E+03   3.12500E+03  HDI001pr27c18       
 HD   I      1   3.75000E+02   2.87500E+03  HDI001pr28c01       
 HD   I      1   6.25000E+02   2.87500E+03  HDI001pr28c02       
 HD   I      1   8.75000E+02   2.87500E+03  HDI001pr28c03       
 HD   I      1   1.12500E+03   2.87500E+03  HDI001pr28c04       
 HD   I      1   1.37500E+03   2.87500E+03  HDI001pr28c05       
 HD   I      1   1.62500E+03   2.87500E+03  HDI001pr28c06       
 HD   I      1   1.87500E+03   2.87500E+03  HDI001pr28c07       
 HD   I      1   2.12500E+03   2.87500E+03  HDI001pr28c08       
 HD   I      1   2.37500E+03   2.87500E+03  HDI001pr28c09       
 HD   I      1   2.62500E+03   2.87500E+03  HDI001pr28c10       
 HD   I      1   2.87500E+03   2.87500E+03  HDI001pr28c11       
 HD   I      1   3.12500E+03   2.87500E+03  HDI001pr28c12       
 HD   I      1   3.37500E+03   2.87500E+03  HDI001pr28c13       
 HD   I      1   3.62500E+03   2.87500E+03  HDI001pr28c14       
 HD   I      1   3.87500E+03   2.87500E+03  HDI001pr28c15       
 HD   I      1   4.12500E+03   2.87500E+03  HDI001pr28c16       
 HD   I      1   4.37500E+03   2.87500E+03  HDI001pr28c17       
 HD   I      1   4.62500E+03   2.87500E+03  HDI001pr28c18       
 HD   I      1   3.75000E+02   2.62500E+03  HDI001pr29c01       
 HD   I      1   6.25000E+02   2.62500E+03  HDI001pr29c02       
 HD   I      1   8.75000E+02   2.62500E+03  HDI001pr29c03       
 HD   I      1   1.12500E+03   2.62500E+03  HDI001pr29c04       
 HD   I      1   1.37500E+03   2.62500E+03  HDI001pr29c05       
 HD   I      1   1.62500E+03   2.62500E+03  HDI001pr29c06       
 HD   I      1   1.87500E+03   2.62500E+03  HDI001pr29c07       
 HD   I      1   2.12500E+03   2.62500E+03  HDI001pr29c08       
 HD   I      1   2.37500E+03   2.62500E+03  HDI001pr29c09       
 HD   I      1   2.62500E+03   2.62500E+03  HDI001pr29c10       
 HD   I      1   2.87500E+03   2.62500E+03  HDI001pr29c11       
 HD   I      1   3.12500E+03   2.62500E+03  HDI001pr29c12       
 HD   I      1   3.37500E+03   2.62500E+03  HDI001pr29c13       
 HD   I      1   3.62500E+03   2.62500E+03  HDI001pr29c14       
 HD   I      1   3.87500E+03   2.62500E+03  HDI001pr29c15       
 HD   I      1   4.12500E+03   2.62500E+03  HDI001pr29c16       
 HD   I      1   4.37500E+03   2.62500E+03  HDI001pr29c17       
 HD   I      1   4.62500E+03   2.62500E+03  HDI001pr29c18       
 HD   I      1   3.75000E+02   2.37500E+03  HDI001pr30c01       
 HD   I      1   6.25000E+02   2.37500E+03  HDI001pr30c02       
 HD   I      1   8.75000E+02   2.37500E+03  HDI001pr30c03       
 HD   I      1   1.12500E+03   2.37500E+03  HDI001pr30c04       
 HD   I      1   1.37500E+03   2.37500E+03  HDI001pr30c05       
 HD   I      1   1.62500E+03   2.37500E+03  HDI001pr30c06       
 HD   I      1   1.87500E+03   2.37500E+03  HDI001pr30c07       
 HD   I      1   2.12500E+03   2.37500E+03  HDI001pr30c08       
 HD   I      1   2.37500E+03   2.37500E+03  HDI001pr30c09       
 HD   I      1   2.62500E+03   2.37500E+03  HDI001pr30c10       
 HD   I      1   2.87500E+03   2.37500E+03  HDI001pr30c11       
 HD   I      1   3.12500E+03   2.37500E+03  HDI001pr30c12       
 HD   I      1   3.37500E+03   2.37500E+03  HDI001pr30c13       
 HD   I      1   3.62500E+03   2.37500E+03  HDI001pr30c14       
 HD   I      1   3.87500E+03   2.37500E+03  HDI001pr30c15       
 HD   I      1   4.12500E+03   2.37500E+03  HDI001pr30c16       
 HD   I      1   4.37500E+03   2.37500E+03  HDI001pr30c17       
 HD   I      1   4.62500E+03   2.37500E+03  HDI001pr30c18       
 HD   I      1   3.75000E+02   2.12500E+03  HDI001pr31c01       
 HD   I      1   6.25000E+02   2.12500E+03  HDI001pr31c02       
 HD   I      1   8.75000E+02   2.12500E+03  HDI001pr31c03       
 HD   I      1   1.12500E+03   2.12500E+03  HDI001pr31c04       
 HD   I      1   1.37500E+03   2.12500E+03  HDI001pr31c05       
 HD   I      1   1.62500E+03   2.12500E+03  HDI001pr31c06       
 HD   I      1   1.87500E+03   2.12500E+03  HDI001pr31c07       
 HD   I      1   2.12500E+03   2.12500E+03  HDI001pr31c08       
 HD   I      1   2.37500E+03   2.12500E+03  HDI001pr31c09       
 HD   I      1   2.62500E+03   2.12500E+03  HDI001pr31c10       
 HD   I      1   2.87500E+03   2.12500E+03  HDI001pr31c11       
 HD   I      1   3.12500E+03   2.12500E+03  HDI001pr31c12       
 HD   I      1   3.37500E+03   2.12500E+03  HDI001pr31c13       
 HD   I      1   3.62500E+03   2.12500E+03  HDI001pr31c14       
 HD   I      1   3.87500E+03   2.12500E+03  HDI001pr31c15       
 HD   I      1   4.12500E+03   2.12500E+03  HDI001pr31c16       
 HD   I      1   4.37500E+03   2.12500E+03  HDI001pr31c17       
 HD   I      1   4.62500E+03   2.12500E+03  HDI001pr31c18       
 HD   I      1   3.75000E+02   1.87500E+03  HDI001pr32c01       
 HD   I      1   6.25000E+02   1.87500E+03  HDI001pr32c02       
 HD   I      1   8.75000E+02   1.87500E+03  HDI001pr32c03       
 HD   I      1   1.12500E+03   1.87500E+03  HDI001pr32c04       
 HD   I      1   1.37500E+03   1.87500E+03  HDI001pr32c05       
 HD   I      1   1.62500E+03   1.87500E+03  HDI001pr32c06       
 HD   I      1   1.87500E+03   1.87500E+03  HDI001pr32c07       
 HD   I      1   2.12500E+03   1.87500E+03  HDI001pr32c08       
 HD   I      1   2.37500E+03   1.87500E+03  HDI001pr32c09       
 HD   I      1   2.62500E+03   1.87500E+03  HDI001pr32c10       
 HD   I      1   2.87500E+03   1.87500E+03  HDI001pr32c11       
 HD   I      1   3.12500E+03   1.87500E+03  HDI001pr32c12       
 HD   I      1   3.37500E+03   1.87500E+03  HDI001pr32c13       
 HD   I      1   3.62500E+03   1.87500E+03  HDI001pr32c14       
 HD   I      1   3.87500E+03   1.87500E+03  HDI001pr32c15       
 HD   I      1   4.12500E+03   1.87500E+03  HDI001pr32c16       
 HD   I      1   4.37500E+03   1.87500E+03  HDI001pr32c17       
 HD   I      1   4.62500E+03   1.87500E+03  HDI001pr32c18       
 HD   I      1   6.25000E+02   1.62500E+03  HDI001pr33c02       
 HD   I      1   8.75000E+02   1.62500E+03  HDI001pr33c03       
 HD   I      1   1.12500E+03   1.62500E+03  HDI001pr33c04       
 HD   I      1   1.37500E+03   1.62500E+03  HDI001pr33c05       
 HD   I      1   1.62500E+03   1.62500E+03  HDI001pr33c06       
 HD   I      1   1.87500E+03   1.62500E+03  HDI001pr33c07       
 HD   I      1   2.12500E+03   1.62500E+03  HDI001pr33c08       
 HD   I      1   2.37500E+03   1.62500E+03  HDI001pr33c09       
 HD   I      1   2.62500E+03   1.62500E+03  HDI001pr33c10       
 HD   I      1   2.87500E+03   1.62500E+03  HDI001pr33c11       
 HD   I      1   3.12500E+03   1.62500E+03  HDI001pr33c12       
 HD   I      1   3.37500E+03   1.62500E+03  HDI001pr33c13       
 HD   I      1   3.62500E+03   1.62500E+03  HDI001pr33c14       
 HD   I      1   3.87500E+03   1.62500E+03  HDI001pr33c15       
 HD   I      1   4.12500E+03   1.62500E+03  HDI001pr33c16       
 HD   I      1   4.37500E+03   1.62500E+03  HDI001pr33c17       
 HD   I      1   4.62500E+03   1.62500E+03  HDI001pr33c18       
 HD   I      1   8.75000E+02   1.37500E+03  HDI001pr34c03       
 HD   I      1   1.12500E+03   1.37500E+03  HDI001pr34c04       
 HD   I      1   1.37500E+03   1.37500E+03  HDI001pr34c05       
 HD   I      1   1.62500E+03   1.37500E+03  HDI001pr34c06       
 HD   I      1   1.87500E+03   1.37500E+03  HDI001pr34c07       
 HD   I      1   2.12500E+03   1.37500E+03  HDI001pr34c08       
 HD   I      1   2.37500E+03   1.37500E+03  HDI001pr34c09       
 HD   I      1   2.62500E+03   1.37500E+03  HDI001pr34c10       
 HD   I      1   2.87500E+03   1.37500E+03  HDI001pr34c11       
 HD   I      1   3.12500E+03   1.37500E+03  HDI001pr34c12       
 HD   I      1   3.37500E+03   1.37500E+03  HDI001pr34c13       
 HD   I      1   3.62500E+03   1.37500E+03  HDI001pr34c14       
 HD   I      1   3.87500E+03   1.37500E+03  HDI001pr34c15       
 HD   I      1   4.12500E+03   1.37500E+03  HDI001pr34c16       
 HD   I      1   4.37500E+03   1.37500E+03  HDI001pr34c17       
 HD   I      1   4.62500E+03   1.37500E+03  HDI001pr34c18       
 HD   I      1   1.12500E+03   1.12500E+03  HDI001pr35c04       
 HD   I      1   1.37500E+03   1.12500E+03  HDI001pr35c05       
 HD   I      1   1.62500E+03   1.12500E+03  HDI001pr35c06       
 HD   I      1   1.87500E+03   1.12500E+03  HDI001pr35c07       
 HD   I      1   2.12500E+03   1.12500E+03  HDI001pr35c08       
 HD   I      1   2.37500E+03   1.12500E+03  HDI001pr35c09       
 HD   I      1   2.62500E+03   1.12500E+03  HDI001pr35c10       
 HD   I      1   2.87500E+03   1.12500E+03  HDI001pr35c11       
 HD   I      1   3.12500E+03   1.12500E+03  HDI001pr35c12       
 HD   I      1   3.37500E+03   1.12500E+03  HDI001pr35c13       
 HD   I      1   3.62500E+03   1.12500E+03  HDI001pr35c14       
 HD   I      1   3.87500E+03   1.12500E+03  HDI001pr35c15       
 HD   I      1   4.12500E+03   1.12500E+03  HDI001pr35c16       
 HD   I      1   4.37500E+03   1.12500E+03  HDI001pr35c17       
 HD   I      1   4.62500E+03   1.12500E+03  HDI001pr35c18       
 HD   I      1   1.12500E+03   8.75000E+02  HDI001pr36c04       
 HD   I      1   1.37500E+03   8.75000E+02  HDI001pr36c05       
 HD   I      1   1.62500E+03   8.75000E+02  HDI001pr36c06       
 HD   I      1   1.87500E+03   8.75000E+02  HDI001pr36c07       
 HD   I      1   2.12500E+03   8.75000E+02  HDI001pr36c08       
 HD   I      1   2.37500E+03   8.75000E+02  HDI001pr36c09       
 HD   I      1   2.62500E+03   8.75000E+02  HDI001pr36c10       
 HD   I      1   2.87500E+03   8.75000E+02  HDI001pr36c11       
 HD   I      1   3.12500E+03   8.75000E+02  HDI001pr36c12       
 HD   I      1   3.37500E+03   8.75000E+02  HDI001pr36c13       
 HD   I      1   3.62500E+03   8.75000E+02  HDI001pr36c14       
 HD   I      1   3.87500E+03   8.75000E+02  HDI001pr36c15       
 HD   I      1   4.12500E+03   8.75000E+02  HDI001pr36c16       
 HD   I      1   4.37500E+03   8.75000E+02  HDI001pr36c17       
 HD   I      1   4.62500E+03   8.75000E+02  HDI001pr36c18       
 HD   I      1   1.37500E+03   6.25000E+02  HDI001pr37c05       
 HD   I      1   1.62500E+03   6.25000E+02  HDI001pr37c06       
 HD   I      1   1.87500E+03   6.25000E+02  HDI001pr37c07       
 HD   I      1   2.12500E+03   6.25000E+02  HDI001pr37c08       
 HD   I      1   2.37500E+03   6.25000E+02  HDI001pr37c09       
 HD   I      1   2.62500E+03   6.25000E+02  HDI001pr37c10       
 HD   I      1   2.87500E+03   6.25000E+02  HDI001pr37c11       
 HD   I      1   3.12500E+03   6.25000E+02  HDI001pr37c12       
 HD   I      1   3.37500E+03   6.25000E+02  HDI001pr37c13       
 HD   I      1   3.62500E+03   6.25000E+02  HDI001pr37c14       
 HD   I      1   3.87500E+03   6.25000E+02  HDI001pr37c15       
 HD   I      1   4.12500E+03   6.25000E+02  HDI001pr37c16       
 HD   I      1   4.37500E+03   6.25000E+02  HDI001pr37c17       
 HD   I      1   1.37500E+03   3.75000E+02  HDI001pr38c05       
 HD   I      1   1.62500E+03   3.75000E+02  HDI001pr38c06       
 HD   I      1   1.87500E+03   3.75000E+02  HDI001pr38c07       
 HD   I      1   2.12500E+03   3.75000E+02  HDI001pr38c08       
 HD   I      1   2.37500E+03   3.75000E+02  HDI001pr38c09       
 HD   I      1   2.62500E+03   3.75000E+02  HDI001pr38c10       
 HD   I      1   2.87500E+03   3.75000E+02  HDI001pr38c11       
 HD   I      1   3.12500E+03   3.75000E+02  HDI001pr38c12       
 HD   I      1   3.37500E+03   3.75000E+02  HDI001pr38c13       
 HD   I      1   3.62500E+03   3.75000E+02  HDI001pr38c14       
 HD   I      1   3.87500E+03   3.75000E+02  HDI001pr38c15       
 HD   I      1   4.12500E+03   3.75000E+02  HDI001pr38c16       
1
                            STRESS PERIOD NO.    1, LENGTH =   1.000000    
                            -----------------------------------------------

                              NUMBER OF TIME STEPS =     1

                               MULTIPLIER FOR DELT =     1.000

                            INITIAL TIME STEP SIZE =   1.000000    

 WELL NO.  LAYER   ROW   COL   STRESS RATE         
 --------------------------------------------------
      1      1      9     16      -628.8    
      2      1     11     13      -330.9    
      3      1     20     14      -339.7    
      4      1     26     10      -66.29    
      5      1     29      6      -64.28    
      6      1     34     12      -444.3    

      6 WELLS

 REACH NO.  LAYER   ROW   COL     STAGE      CONDUCTANCE     BOTTOM EL.         
 -------------------------------------------------------------------------------
      1      1      1     15       20.19           5776.           20.00    
      2      1      2     15       19.60           3790.           19.75    
      3      1      3     15       19.89           5532.           19.50    
      4      1      4     15       19.38           6135.           19.25    
      5      1      5     15       19.28           5536.           19.00    
      6      1      6     15       19.22           3842.           18.75    
      7      1      7     15       18.90           2866.           18.50    
      8      1      8     15       18.42           4318.           18.25    
      9      1      9     15       18.10           4796.           18.00    
     10      1     10     15       18.88           4638.           17.75    
     11      1     11     15       18.01           4619.           17.50    
     12      1     12     15       17.35           5474.           17.25    
     13      1     13     15       17.33           3453.           17.00    
     14      1     14     15       17.56           6251.           16.75    
     15      1     15     15       16.76           5307.           16.50    
     16      1     16     15       16.28           6982.           16.25    
     17      1     17     15       16.41           5070.           16.00    
     18      1     18     15       15.91           4556.           15.75    
     19      1     19     15       16.06           5303.           15.50    
     20      1     20     15       16.06           4765.           15.25    
     21      1     21     15       15.52           5390.           15.00    
     22      1     22     15       15.39           2649.           14.75    
     23      1     23     15       15.16           4347.           14.50    
     24      1     24     15       15.01           5110.           14.25    
     25      1     25     15       14.90           3705.           14.00    
     26      1     26     15       14.49           3711.           13.75    
     27      1     27     15       14.17           4484.           13.50    
     28      1     28     15       14.01           4405.           13.25    
     29      1     29     15       13.73           5105.           13.00    
     30      1     30     15       13.58           5620.           12.75    
     31      1     31     15       13.32           3492.           12.50    
     32      1     32     15       13.14           5515.           12.25    
     33      1     33     15       12.85           4310.           12.00    
     34      1     34     15       12.55           6270.           11.75    
     35      1     35     15       12.22           5453.           11.50    
     36      1     36     15       12.25           4212.           11.25    
     37      1     37     15       11.85           6121.           11.00    
     38      1     38     15       11.90           6083.           10.75    
     39      1     39     15       11.48           3721.           10.50    
     40      1     40     15       11.24           5427.           10.25    

     40 RIVER REACHES

                 RECHARGE =  1.382208E-04

 SOLVING FOR HEAD 


    17 CALLS TO PCG ROUTINE FOR TIME STEP   1 IN STRESS PERIOD    1
   211 TOTAL ITERATIONS

 MAXIMUM HEAD CHANGE FOR EACH ITERATION (1 INDICATES THE FIRST INNER ITERATION):

    HEAD CHANGE    HEAD CHANGE    HEAD CHANGE    HEAD CHANGE    HEAD CHANGE 
   LAYER,ROW,COL  LAYER,ROW,COL  LAYER,ROW,COL  LAYER,ROW,COL  LAYER,ROW,COL
 ---------------------------------------------------------------------------
  1  -48.85      0  -33.41      0   15.65      0   7.366      0  -3.298    
   (  1, 39, 11)  (  1,  9,  4)  (  1,  9,  4)  (  1, 22,  4)  (  1, 33,  2)
  0  -1.317      0 -0.5390      0 -0.2845      0 -0.1663      0 -0.9068E-01
   (  1, 29,  5)  (  1, 37,  5)  (  1, 37,  5)  (  1, 19,  4)  (  1,  8,  5)
  0  0.4356E-01  0  0.3951E-01  0 -0.1448E-01  0  0.8412E-02  0  0.2417E-02
   (  1,  8,  5)  (  1,  9,  4)  (  1, 13,  2)  (  1, 13,  3)  (  1, 35,  4)
  0  0.1007E-02  0 -0.5716E-03  0 -0.1745E-03  0  0.6504E-04  0 -0.8074E-04
   (  1,  3,  6)  (  1,  4,  5)  (  1,  5, 12)  (  1,  9,  4)  (  1,  9,  4)
  0 -0.3449E-04  0 -0.1121E-04  0  0.8858E-05  1  -13.07      0  -12.75    
   (  1,  8,  5)  (  1, 14,  3)  (  1, 14,  2)  (  1, 39, 12)  (  1,  9,  4)
  0  -5.260      0   2.220      0  -1.232      0 -0.4672      0 -0.1974    
   (  1,  8,  5)  (  1, 39, 11)  (  1, 33,  2)  (  1, 28,  5)  (  1, 14,  1)
  0 -0.8591E-01  0  0.3330E-01  0 -0.3651E-01  0  0.1728E-01  0  0.6536E-02
   (  1, 37,  5)  (  1,  5,  1)  (  1,  9,  4)  (  1,  9,  4)  (  1,  5,  5)
  0  0.3723E-02  0  0.1877E-02  0  0.6704E-03  0  0.3820E-03  0  0.1488E-03
   (  1,  2,  8)  (  1, 13,  3)  (  1, 20,  3)  (  1,  4,  6)  (  1, 33,  6)
  0 -0.6541E-04  0 -0.4886E-04  0  0.2057E-04  0 -0.9623E-05  1   11.64    
   (  1,  8,  5)  (  1,  9,  4)  (  1,  9,  4)  (  1,  8,  4)  (  1,  9,  4)
  0  -8.145      0  -3.276      0 -0.7505      0 -0.5129      0 -0.1671    
   (  1,  9,  4)  (  1,  8,  5)  (  1,  3,  6)  (  1, 33,  2)  (  1, 28,  4)
  0 -0.7999E-01  0 -0.4253E-01  0 -0.1391E-01  0 -0.1035E-01  0  0.6229E-02
   (  1, 23,  5)  (  1,  8,  5)  (  1, 28,  7)  (  1,  9,  4)  (  1,  9,  4)
  0 -0.3012E-02  0  0.1117E-02  0  0.5941E-03  0  0.3056E-03  0  0.1224E-03
   (  1, 25,  4)  (  1, 17,  9)  (  1, 33,  2)  (  1, 21,  3)  (  1,  2,  1)
  0  0.5080E-04  0  0.1617E-04  0 -0.1795E-04  0  0.1037E-04  0  0.3154E-05
   (  1, 22,  8)  (  1,  9,  4)  (  1,  9,  4)  (  1, 16,  4)  (  1, 29,  9)
  1   1.758      0  -1.355      0 -0.5273      0 -0.2477      0 -0.2027    
   (  1,  9,  4)  (  1,  9,  4)  (  1,  8,  5)  (  1,  3,  7)  (  1, 33,  2)
  0 -0.6053E-01  0 -0.2088E-01  0 -0.1235E-01  0 -0.5121E-02  0 -0.3657E-02
   (  1, 30,  5)  (  1, 37,  5)  (  1, 27,  4)  (  1, 23,  5)  (  1, 29,  3)
  0  0.1541E-02  0 -0.1051E-02  0 -0.4577E-03  0  0.1988E-03  0  0.1115E-03
   (  1,  9,  1)  (  1,  9,  4)  (  1, 33,  2)  (  1,  7,  9)  (  1, 19,  2)
  0  0.6161E-04  0  0.2138E-04  0 -0.1073E-04  0  0.4213E-05  1 -0.4439    
   (  1,  4,  5)  (  1, 17,  4)  (  1, 14,  2)  (  1,  9,  3)  (  1,  9,  4)
  0  0.6559      0 -0.1639      0 -0.1203      0 -0.5382E-01  0 -0.2434E-01
   (  1,  9,  4)  (  1, 27,  8)  (  1,  8,  5)  (  1, 27,  1)  (  1, 20,  3)
  0 -0.1288E-01  0 -0.3560E-02  0 -0.2351E-02  0  0.1565E-02  0 -0.7258E-03
   (  1, 31,  5)  (  1, 37,  5)  (  1, 17,  4)  (  1, 10,  1)  (  1,  9,  4)
  0 -0.5128E-03  0 -0.2575E-03  0  0.7272E-04  0 -0.3033E-04  0  0.2629E-04
   (  1,  8,  5)  (  1, 16,  3)  (  1, 22,  9)  (  1,  6,  8)  (  1,  4,  5)
  0 -0.8349E-05  1  -1.020      0  0.2952      0 -0.1349      0 -0.1672    
   (  1,  5,  5)  (  1,  2, 15)  (  1,  9,  4)  (  1,  3,  9)  (  1,  8,  5)
  0 -0.3649E-01  0 -0.1611E-01  0 -0.7726E-02  0  0.4036E-02  0 -0.1559E-02
   (  1, 32,  1)  (  1, 20,  2)  (  1, 31,  6)  (  1, 19,  1)  (  1, 31,  9)
  0  0.8754E-03  0  0.9236E-03  0 -0.5694E-03  0 -0.1977E-03  0 -0.1187E-03
   (  1, 28,  7)  (  1,  9,  4)  (  1,  9,  2)  (  1,  5, 11)  (  1,  4,  6)
  0  0.5318E-04  0 -0.2412E-04  0  0.1084E-04  0 -0.3836E-05  1 -0.3601    
   (  1, 15,  2)  (  1, 17,  4)  (  1, 16,  3)  (  1, 15,  2)  (  1,  2, 15)
  0  0.5146E-01  0 -0.7660E-01  0 -0.2358E-01  0 -0.1066E-01  0  0.5982E-02
   (  1,  9,  4)  (  1,  9,  4)  (  1, 33,  2)  (  1, 15,  1)  (  1,  8,  5)
  0  0.2051E-02  0 -0.1313E-02  0  0.7105E-03  0  0.2805E-03  0  0.1807E-03
   (  1, 30,  5)  (  1,  8,  5)  (  1,  5,  1)  (  1,  4, 11)  (  1,  9,  4)
  0 -0.1505E-03  0 -0.6127E-04  0  0.3708E-04  0  0.1570E-04  0 -0.5658E-05
   (  1, 12,  2)  (  1, 30,  9)  (  1, 14,  2)  (  1,  6,  7)  (  1,  5,  5)
  1 -0.1245      0  0.2139E-01  0 -0.1607E-01  0 -0.1014E-01  0 -0.3445E-02
   (  1,  2, 15)  (  1,  9,  4)  (  1,  3, 12)  (  1,  5,  2)  (  1, 33,  2)
  0 -0.2096E-02  0  0.5983E-03  0  0.3436E-03  0 -0.2747E-03  0  0.1061E-03
   (  1, 19,  1)  (  1, 31,  6)  (  1,  4,  1)  (  1,  8,  5)  (  1,  9,  4)
  0 -0.9128E-04  0  0.2446E-04  0 -0.1673E-04  0  0.7712E-05  1 -0.4305E-01
   (  1,  9,  4)  (  1,  9,  4)  (  1,  3,  1)  (  1, 31,  4)  (  1,  2, 15)
  0  0.8605E-02  0 -0.5196E-02  0 -0.5952E-02  0 -0.1500E-02  0 -0.8549E-03
   (  1,  9,  4)  (  1,  3, 12)  (  1,  8,  5)  (  1, 32,  1)  (  1, 19,  2)
  0 -0.2033E-03  0  0.1969E-03  0 -0.6665E-04  0 -0.3841E-04  0  0.3793E-04
   (  1, 27,  3)  (  1, 31,  6)  (  1,  4, 13)  (  1,  9,  4)  (  1,  9,  4)
  0 -0.2000E-04  0 -0.7997E-05  1 -0.1498E-01  0  0.3696E-02  0  0.2166E-02
   (  1, 25,  4)  (  1, 31,  3)  (  1,  2, 15)  (  1,  9,  4)  (  1,  8,  5)
  0 -0.2139E-02  0 -0.6567E-03  0 -0.2778E-03  0 -0.1105E-03  0  0.6099E-04
   (  1,  8,  5)  (  1,  4,  7)  (  1, 19,  2)  (  1, 29,  4)  (  1, 30,  6)
  0 -0.2812E-04  0  0.1405E-04  0  0.7322E-05  1 -0.5222E-02  0  0.1044E-02
   (  1,  1, 20)  (  1, 28,  7)  (  1,  8,  5)  (  1,  2, 15)  (  1,  8,  5)
  0  0.1012E-02  0 -0.7335E-03  0 -0.2643E-03  0 -0.8947E-04  0 -0.4386E-04
   (  1,  9,  4)  (  1,  9,  4)  (  1,  4,  7)  (  1, 19,  2)  (  1, 29,  4)
  0  0.1999E-04  0 -0.1070E-04  0  0.5634E-05  1 -0.1814E-02  0 -0.2336E-03
   (  1,  3,  9)  (  1,  1, 20)  (  1, 25,  3)  (  1,  2, 15)  (  1,  9,  4)
  0  0.4335E-03  0 -0.2244E-03  0 -0.9588E-04  0 -0.2750E-04  0 -0.1543E-04
   (  1,  9,  4)  (  1,  8,  4)  (  1,  4,  7)  (  1, 17,  1)  (  1, 28,  4)
  0  0.7011E-05  1 -0.6313E-03  0 -0.1004E-03  0  0.1398E-03  0 -0.7738E-04
   (  1,  3,  9)  (  1,  2, 15)  (  1,  9,  4)  (  1,  9,  4)  (  1,  8,  4)
  0 -0.3275E-04  0 -0.9143E-05  1 -0.2185E-03  0 -0.4343E-04  0  0.3158E-04
   (  1,  4,  8)  (  1, 16,  1)  (  1,  2, 15)  (  1,  9,  4)  (  1,  9,  4)
  0 -0.2213E-04  0 -0.1278E-04  0 -0.4386E-05  1 -0.7677E-04  0 -0.1257E-04
   (  1,  3, 14)  (  1,  4,  5)  (  1,  4, 10)  (  1,  2, 15)  (  1,  9,  4)
  0  0.1581E-04  0 -0.9240E-05  1 -0.2031E-04  0 -0.1071E-04  0  0.6456E-05
   (  1,  9,  4)  (  1,  3, 14)  (  1,  2, 15)  (  1,  9,  4)  (  1,  9,  4)
  1  0.5274E-05
   (  1,  8,  5)

 MAXIMUM RESIDUAL FOR EACH ITERATION (1 INDICATES THE FIRST INNER ITERATION):

    RESIDUAL       RESIDUAL       RESIDUAL       RESIDUAL       RESIDUAL    
   LAYER,ROW,COL  LAYER,ROW,COL  LAYER,ROW,COL  LAYER,ROW,COL  LAYER,ROW,COL
 ---------------------------------------------------------------------------
  1  -4683.      0  -3563.      0  -1618.      0  -758.8      0  -582.7    
   (  1, 39, 12)  (  1, 39, 13)  (  1, 39,  9)  (  1, 39, 15)  (  1, 39, 15)
  0  -430.1      0  -305.2      0  -184.3      0  -96.76      0  -53.11    
   (  1, 39, 15)  (  1, 39, 15)  (  1, 39, 15)  (  1, 39, 15)  (  1, 39, 15)
  0  -29.13      0  -23.49      0  -9.778      0  -3.361      0  -1.076    
   (  1, 39, 15)  (  1, 39, 15)  (  1, 39, 15)  (  1, 39, 15)  (  1, 39, 15)
  0 -0.3509      0 -0.1036      0 -0.4837E-01  0 -0.2598E-01  0 -0.2249E-01
   (  1, 39, 15)  (  1, 39, 15)  (  1, 38, 15)  (  1, 38, 15)  (  1, 38, 15)
  0 -0.1102E-01  0 -0.4945E-02  0 -0.2076E-02  1  -943.9      0  -841.4    
   (  1, 38, 15)  (  1, 38, 15)  (  1, 38, 15)  (  1, 39, 12)  (  1, 39, 12)
  0  -401.1      0  -165.9      0  -128.8      0  -95.15      0  -67.12    
   (  1, 39, 14)  (  1, 39, 15)  (  1, 39, 15)  (  1, 39, 15)  (  1, 39, 15)
  0  -41.45      0  -25.23      0  -15.62      0  -12.93      0  -6.481    
   (  1, 39, 15)  (  1, 39, 15)  (  1, 39, 15)  (  1, 39, 15)  (  1, 39, 15)
  0  -2.639      0  -1.036      0 -0.3986      0 -0.1461      0 -0.4409E-01
   (  1, 39, 15)  (  1, 39, 15)  (  1, 39, 15)  (  1, 39, 15)  (  1, 39, 15)
  0 -0.1411E-01  0 -0.1195E-01  0 -0.5751E-02  0 -0.2499E-02  1   433.4    
   (  1, 39, 15)  (  1, 38, 15)  (  1, 38, 15)  (  1, 38, 15)  (  1, 38, 15)
  0  -179.9      0  -121.5      0  -42.35      0  -28.16      0  -21.68    
   (  1, 39, 12)  (  1, 39, 12)  (  1, 39, 14)  (  1, 39, 15)  (  1, 39, 15)
  0  -15.27      0  -9.245      0  -5.818      0  -3.956      0  -3.329    
   (  1, 39, 15)  (  1, 39, 15)  (  1, 39, 15)  (  1, 39, 15)  (  1, 39, 15)
  0  -1.700      0 -0.8263      0 -0.4003      0 -0.1678      0 -0.6382E-01
   (  1, 39, 15)  (  1, 39, 15)  (  1, 39, 15)  (  1, 39, 15)  (  1, 39, 15)
  0 -0.2053E-01  0 -0.8277E-02  0 -0.6691E-02  0 -0.2619E-02  0 -0.7693E-03
   (  1, 39, 15)  (  1, 39, 15)  (  1, 39, 15)  (  1, 39, 15)  (  1, 38, 15)
  1   63.57      0  -37.88      0  -29.50      0  -14.01      0  -7.143    
   (  1, 38, 15)  (  1, 39, 12)  (  1, 39, 12)  (  1, 39, 14)  (  1, 39, 15)
  0  -5.385      0  -3.945      0  -2.536      0  -1.647      0  -1.053    
   (  1, 39, 15)  (  1, 39, 15)  (  1, 39, 15)  (  1, 39, 15)  (  1, 39, 15)
  0 -0.6049      0 -0.5275      0 -0.2886      0 -0.1427      0 -0.6894E-01
   (  1, 39, 15)  (  1, 39, 15)  (  1, 39, 15)  (  1, 39, 15)  (  1, 39, 15)
  0 -0.3117E-01  0 -0.1271E-01  0 -0.5486E-02  0 -0.2086E-02  1   46.38    
   (  1, 39, 15)  (  1, 39, 15)  (  1, 39, 15)  (  1, 39, 15)  (  1, 38, 15)
  0   18.88      0  -9.201      0  -3.854      0  -1.947      0  -1.483    
   (  1, 38, 15)  (  1, 34, 12)  (  1, 39, 14)  (  1, 39, 15)  (  1, 39, 15)
  0  -1.080      0 -0.6977      0 -0.4255      0 -0.2969      0 -0.2531    
   (  1, 39, 15)  (  1, 39, 15)  (  1, 39, 15)  (  1, 39, 15)  (  1, 39, 15)
  0 -0.1586      0 -0.8775E-01  0 -0.4326E-01  0 -0.2246E-01  0 -0.1074E-01
   (  1, 39, 15)  (  1, 39, 15)  (  1, 39, 15)  (  1, 39, 15)  (  1, 39, 15)
  0 -0.4573E-02  1   62.07      0   52.77      0   25.75      0   12.42    
   (  1, 39, 15)  (  1,  1, 15)  (  1,  1, 15)  (  1,  3, 14)  (  1,  3, 14)
  0   5.665      0   2.706      0  -1.630      0  0.9078      0  0.4262    
   (  1,  3, 15)  (  1,  3, 15)  (  1,  3, 13)  (  1,  4, 13)  (  1,  4, 13)
  0  0.1927      0 -0.1454      0 -0.7800E-01  0  0.4214E-01  0  0.1811E-01
   (  1,  4, 13)  (  1,  4, 12)  (  1,  4, 12)  (  1,  5, 12)  (  1,  5, 12)
  0  0.5869E-02  0  0.2729E-02  0  0.1434E-02  0  0.6306E-03  1   17.98    
   (  1,  5, 12)  (  1,  6, 11)  (  1,  6, 11)  (  1,  6, 11)  (  1, 37, 15)
  0   12.52      0   7.035      0   3.045      0   1.564      0 -0.7969    
   (  1,  3, 14)  (  1,  3, 14)  (  1,  3, 14)  (  1,  3, 15)  (  1,  3, 13)
  0  0.4612      0  0.2589      0  0.1168      0 -0.3976E-01  0 -0.2937E-01
   (  1,  4, 13)  (  1,  4, 13)  (  1,  4, 13)  (  1,  4, 12)  (  1,  4, 12)
  0  0.2269E-01  0  0.1233E-01  0  0.5633E-02  0 -0.1523E-02  0  0.8727E-03
   (  1,  5, 12)  (  1,  5, 12)  (  1,  5, 12)  (  1,  5, 11)  (  1,  6, 11)
  1   6.057      0   5.291      0   2.668      0   1.219      0  0.5736    
   (  1, 37, 15)  (  1,  3, 14)  (  1,  3, 14)  (  1,  3, 14)  (  1,  3, 15)
  0 -0.2607      0  0.1636      0  0.9006E-01  0  0.4162E-01  0 -0.1552E-01
   (  1,  3, 13)  (  1,  4, 13)  (  1,  4, 13)  (  1,  4, 13)  (  1,  4, 12)
  0 -0.1286E-01  0  0.7764E-02  0  0.3739E-02  0  0.1966E-02  1   2.140    
   (  1,  4, 12)  (  1,  5, 12)  (  1,  5, 12)  (  1,  5, 12)  (  1,  3, 14)
  0   1.989      0   1.176      0  0.5566      0  0.2137      0  0.9833E-01
   (  1,  3, 14)  (  1,  3, 14)  (  1,  3, 14)  (  1,  3, 15)  (  1,  4, 13)
  0  0.7242E-01  0  0.4292E-01  0  0.1612E-01  0  0.7051E-02  0 -0.5720E-02
   (  1,  4, 13)  (  1,  4, 13)  (  1,  4, 13)  (  1,  4, 13)  (  1,  4, 12)
  0  0.3457E-02  0  0.2083E-02  1  0.7827      0  0.6874      0  0.4827    
   (  1,  5, 12)  (  1,  5, 12)  (  1,  3, 14)  (  1,  3, 14)  (  1,  3, 14)
  0  0.2167      0  0.8113E-01  0  0.3714E-01  0  0.2882E-01  0  0.1664E-01
   (  1,  3, 14)  (  1,  3, 14)  (  1,  4, 13)  (  1,  4, 13)  (  1,  4, 13)
  0  0.6236E-02  0  0.2752E-02  0 -0.1470E-02  1  0.2849      0  0.2301    
   (  1,  4, 13)  (  1,  4, 13)  (  1,  4, 12)  (  1,  3, 14)  (  1,  3, 14)
  0  0.1795      0  0.8143E-01  0  0.2994E-01  0  0.1376E-01  0  0.1069E-01
   (  1,  3, 14)  (  1,  3, 14)  (  1,  3, 14)  (  1,  4, 13)  (  1,  4, 13)
  0  0.6168E-02  0  0.2401E-02  0  0.1058E-02  1  0.1027      0  0.9694E-01
   (  1,  4, 13)  (  1,  4, 13)  (  1,  4, 13)  (  1,  3, 14)  (  1,  3, 14)
  0  0.6479E-01  0  0.2943E-01  0  0.1077E-01  0  0.5059E-02  0  0.3815E-02
   (  1,  3, 14)  (  1,  3, 14)  (  1,  3, 14)  (  1,  4, 13)  (  1,  4, 13)
  0  0.2218E-02  1  0.3723E-01  0  0.3583E-01  0  0.2243E-01  0  0.1001E-01
   (  1,  4, 13)  (  1,  3, 14)  (  1,  3, 14)  (  1,  3, 14)  (  1,  3, 14)
  0  0.3500E-02  0  0.1799E-02  1  0.1343E-01  0  0.1307E-01  0  0.8859E-02
   (  1,  3, 14)  (  1,  4, 13)  (  1,  3, 14)  (  1,  3, 14)  (  1,  3, 14)
  0  0.3833E-02  0  0.1516E-02  0  0.6718E-03  1  0.4886E-02  0  0.4688E-02
   (  1,  3, 14)  (  1,  3, 14)  (  1,  4, 13)  (  1,  3, 14)  (  1,  3, 14)
  0  0.3326E-02  0  0.1247E-02  1  0.2885E-02  0  0.1502E-02  0  0.1354E-02
   (  1,  3, 14)  (  1,  3, 14)  (  1,  2, 15)  (  1,  3, 14)  (  1,  3, 14)
  1  0.2294E-02
   (  1,  2, 15)



 OUTPUT CONTROL FOR STRESS PERIOD    1   TIME STEP    1
    SAVE HEAD FOR ALL LAYERS
    SAVE BUDGET
 UBDSV2 SAVING "   CONSTANT HEAD" ON UNIT  53 AT TIME STEP  1, STRESS PERIOD   1
 UBDSV1 SAVING "FLOW RIGHT FACE " ON UNIT  53 AT TIME STEP  1, STRESS PERIOD   1
 UBDSV1 SAVING "FLOW FRONT FACE " ON UNIT  53 AT TIME STEP  1, STRESS PERIOD   1

 HEAD WILL BE SAVED ON UNIT   51 AT END OF TIME STEP    1, STRESS PERIOD    1
1
  VOLUMETRIC BUDGET FOR ENTIRE MODEL AT END OF TIME STEP    1, STRESS PERIOD   1
  ------------------------------------------------------------------------------

     CUMULATIVE VOLUMES      L**3       RATES FOR THIS TIME STEP      L**3/T
     ------------------                 ------------------------

           IN:                                      IN:
           ---                                      ---
             STORAGE =           0.0000               STORAGE =           0.0000
       CONSTANT HEAD =           0.0000         CONSTANT HEAD =           0.0000
               WELLS =           0.0000                 WELLS =           0.0000
       RIVER LEAKAGE =         555.4011         RIVER LEAKAGE =         555.4011
            RECHARGE =        6003.9658              RECHARGE =        6003.9658

            TOTAL IN =        6559.3672              TOTAL IN =        6559.3672

          OUT:                                     OUT:
          ----                                     ----
             STORAGE =           0.0000               STORAGE =           0.0000
       CONSTANT HEAD =         283.0880         CONSTANT HEAD =         283.0880
               WELLS =        1874.3583                 WELLS =        1874.3583
       RIVER LEAKAGE =        4402.0220         RIVER LEAKAGE =        4402.0220
            RECHARGE =           0.0000              RECHARGE =           0.0000

           TOTAL OUT =        6559.4683             TOTAL OUT =        6559.4683

            IN - OUT =          -0.1011              IN - OUT =          -0.1011

 PERCENT DISCREPANCY =          -0.00     PERCENT DISCREPANCY =          -0.00






         TIME SUMMARY AT END OF TIME STEP    1 IN STRESS PERIOD    1
                    SECONDS     MINUTES      HOURS       DAYS        YEARS
                    -----------------------------------------------------------
   TIME STEP LENGTH  86400.      1440.0      24.000      1.0000     2.73785E-03
 STRESS PERIOD TIME  86400.      1440.0      24.000      1.0000     2.73785E-03
         TOTAL TIME  86400.      1440.0      24.000      1.0000     2.73785E-03
1
 A TOTAL OF 640 HYDROGRAPH POINTS HAVE BEEN PREPARED.
1
                            STRESS PERIOD NO.    2, LENGTH =   1825.000    
                            -----------------------------------------------

                              NUMBER OF TIME STEPS =     1

                               MULTIPLIER FOR DELT =     1.000

                            INITIAL TIME STEP SIZE =   1825.000    

 WELL NO.  LAYER   ROW   COL   STRESS RATE         
 --------------------------------------------------
      1      1      9     16      -841.8    
      2      1     11     13      -456.2    
      3      1     20     14      -363.5    
      4      1     26     10      -96.74    
      5      1     29      6      -66.48    
      6      1     34     12      -493.4    

      6 WELLS

 REACH NO.  LAYER   ROW   COL     STAGE      CONDUCTANCE     BOTTOM EL.         
 -------------------------------------------------------------------------------
      1      1      1     15       20.29           6513.           20.00    
      2      1      2     15       19.81           4438.           19.75    
      3      1      3     15       20.10           6156.           19.50    
      4      1      4     15       19.37           5410.           19.25    
      5      1      5     15       19.21           6028.           19.00    
      6      1      6     15       18.97           5313.           18.75    
      7      1      7     15       18.81           3846.           18.50    
      8      1      8     15       18.43           5831.           18.25    
      9      1      9     15       18.58           4497.           18.00    
     10      1     10     15       19.07           4282.           17.75    
     11      1     11     15       17.64           5710.           17.50    
     12      1     12     15       17.46           3483.           17.25    
     13      1     13     15       17.53           4368.           17.00    
     14      1     14     15       17.35           4593.           16.75    
     15      1     15     15       16.87           5063.           16.50    
     16      1     16     15       16.89           2612.           16.25    
     17      1     17     15       16.31           4018.           16.00    
     18      1     18     15       16.11           5095.           15.75    
     19      1     19     15       16.09           5867.           15.50    
     20      1     20     15       15.61           2969.           15.25    
     21      1     21     15       15.30           2970.           15.00    
     22      1     22     15       15.28           4680.           14.75    
     23      1     23     15       15.05           4085.           14.50    
     24      1     24     15       15.21           4238.           14.25    
     25      1     25     15       14.74           5667.           14.00    
     26      1     26     15       14.44           4505.           13.75    
     27      1     27     15       14.35           4536.           13.50    
     28      1     28     15       13.63           4374.           13.25    
     29      1     29     15       13.78           5304.           13.00    
     30      1     30     15       13.71           4737.           12.75    
     31      1     31     15       13.39           4671.           12.50    
     32      1     32     15       12.99           4225.           12.25    
     33      1     33     15       12.89           3323.           12.00    
     34      1     34     15       12.53           3788.           11.75    
     35      1     35     15       12.32           3981.           11.50    
     36      1     36     15       12.11           6059.           11.25    
     37      1     37     15       11.89           5024.           11.00    
     38      1     38     15       11.64           4588.           10.75    
     39      1     39     15       11.37           3807.           10.50    
     40      1     40     15       11.57           3644.           10.25    

     40 RIVER REACHES

                 RECHARGE =  9.358508E-05

 SOLVING FOR HEAD 


    13 CALLS TO PCG ROUTINE FOR TIME STEP   1 IN STRESS PERIOD    2
    66 TOTAL ITERATIONS

 MAXIMUM HEAD CHANGE FOR EACH ITERATION (1 INDICATES THE FIRST INNER ITERATION):

    HEAD CHANGE    HEAD CHANGE    HEAD CHANGE    HEAD CHANGE    HEAD CHANGE 
   LAYER,ROW,COL  LAYER,ROW,COL  LAYER,ROW,COL  LAYER,ROW,COL  LAYER,ROW,COL
 ---------------------------------------------------------------------------
  1   2.415      0 -0.2414      0 -0.6749E-01  0 -0.9810E-02  0  0.2590E-02
   (  1,  2, 15)  (  1,  2, 14)  (  1,  1, 20)  (  1,  3,  7)  (  1,  1, 20)
  0 -0.5515E-03  0  0.3001E-03  0  0.6496E-04  0 -0.1518E-04  0 -0.3522E-05
   (  1,  9,  4)  (  1,  9,  4)  (  1,  8,  5)  (  1,  8,  5)  (  1,  1, 20)
  1 -0.4087      0  0.7564E-01  0 -0.1117E-01  0  0.2142E-02  0  0.5045E-03
   (  1,  2, 15)  (  1, 11, 13)  (  1,  3, 14)  (  1, 16, 10)  (  1,  8,  5)
  0  0.2251E-03  0 -0.7493E-04  0 -0.1163E-04  0 -0.2969E-05  1 -0.1225    
   (  1,  9,  4)  (  1,  9,  4)  (  1,  8,  5)  (  1,  5, 12)  (  1,  2, 15)
  0  0.2603E-01  0  0.3543E-02  0  0.6791E-03  0 -0.2288E-03  0  0.8503E-04
   (  1, 11, 13)  (  1, 12, 10)  (  1, 16, 10)  (  1,  9,  4)  (  1,  9,  4)
  0 -0.2144E-04  0 -0.3387E-05  1 -0.3667E-01  0  0.8889E-02  0  0.1147E-02
   (  1,  9,  4)  (  1,  5, 12)  (  1,  2, 15)  (  1, 11, 13)  (  1, 12, 10)
  0  0.2168E-03  0 -0.8899E-04  0  0.2855E-04  0 -0.6455E-05  1 -0.1371E-01
   (  1, 17, 11)  (  1,  9,  4)  (  1,  9,  4)  (  1,  9,  4)  (  1,  9, 16)
  0  0.3006E-02  0  0.3744E-03  0  0.7067E-04  0 -0.3129E-04  0  0.9568E-05
   (  1, 11, 13)  (  1, 12, 10)  (  1, 17, 11)  (  1,  9,  4)  (  1,  9,  4)
  1 -0.5315E-02  0  0.1005E-02  0  0.1233E-03  0  0.2777E-04  0 -0.1085E-04
   (  1,  9, 16)  (  1, 11, 13)  (  1, 12, 10)  (  1,  9, 16)  (  1,  9,  4)
  0  0.3256E-05  1 -0.2051E-02  0  0.3319E-03  0 -0.4139E-04  0  0.1050E-04
   (  1,  9,  4)  (  1,  9, 16)  (  1, 11, 13)  (  1,  8, 17)  (  1,  9, 16)
  0 -0.3629E-05  1 -0.7885E-03  0  0.1110E-03  0 -0.1667E-04  0  0.3816E-05
   (  1,  9,  4)  (  1,  9, 16)  (  1, 34, 12)  (  1,  8, 17)  (  1,  9, 16)
  1 -0.3019E-03  0  0.3809E-04  0 -0.6556E-05  1 -0.1147E-03  0  0.1333E-04
   (  1,  9, 16)  (  1, 34, 12)  (  1,  8, 17)  (  1,  9, 16)  (  1, 34, 12)
  0 -0.2424E-05  1 -0.4381E-04  0  0.4611E-05  1 -0.1640E-04  0  0.1658E-05
   (  1,  8, 17)  (  1,  9, 16)  (  1, 34, 12)  (  1,  9, 16)  (  1, 34, 12)
  1 -0.6305E-05
   (  1,  9, 16)

 MAXIMUM RESIDUAL FOR EACH ITERATION (1 INDICATES THE FIRST INNER ITERATION):

    RESIDUAL       RESIDUAL       RESIDUAL       RESIDUAL       RESIDUAL    
   LAYER,ROW,COL  LAYER,ROW,COL  LAYER,ROW,COL  LAYER,ROW,COL  LAYER,ROW,COL
 ---------------------------------------------------------------------------
  1   142.4      0   20.57      0   4.259      0  -1.035      0  0.2290    
   (  1, 11, 15)  (  1, 11, 15)  (  1,  3, 13)  (  1,  4, 13)  (  1,  4, 12)
  0 -0.6996E-01  0 -0.2167E-01  0  0.5244E-02  0 -0.1530E-02  0 -0.2426E-03
   (  1,  5, 12)  (  1,  5, 12)  (  1,  5, 11)  (  1,  6, 11)  (  1,  6, 11)
  1   24.99      0   5.516      0  0.9077      0  0.3073      0  0.8800E-01
   (  1,  2, 15)  (  1,  3, 14)  (  1,  3, 14)  (  1,  4, 13)  (  1,  4, 13)
  0  0.1812E-01  0  0.7075E-02  0  0.1535E-02  0  0.3329E-03  1   9.380    
   (  1,  5, 12)  (  1,  5, 12)  (  1,  5, 12)  (  1,  6, 11)  (  1,  2, 15)
  0   1.676      0  0.3001      0  0.9405E-01  0  0.3042E-01  0  0.6305E-02
   (  1,  3, 14)  (  1,  3, 14)  (  1,  4, 13)  (  1,  4, 13)  (  1,  4, 13)
  0  0.2197E-02  0  0.4984E-03  1   3.667      0  0.5074      0  0.9705E-01
   (  1,  5, 12)  (  1,  5, 12)  (  1,  2, 15)  (  1,  3, 14)  (  1,  3, 14)
  0  0.2887E-01  0  0.9809E-02  0  0.2123E-02  0  0.6774E-03  1   1.464    
   (  1,  4, 13)  (  1,  4, 13)  (  1,  4, 13)  (  1,  5, 12)  (  1,  2, 15)
  0  0.2057      0  0.3296E-01  0  0.8788E-02  0  0.3023E-02  0  0.6793E-03
   (  1,  2, 15)  (  1,  2, 15)  (  1,  4, 13)  (  1,  4, 13)  (  1,  4, 13)
  1  0.5855      0  0.8629E-01  0  0.1470E-01  0  0.2769E-02  0  0.9141E-03
   (  1,  2, 15)  (  1,  2, 15)  (  1,  2, 15)  (  1,  2, 15)  (  1,  4, 13)
  0  0.2103E-03  1  0.2307      0  0.3615E-01  0  0.6529E-02  0  0.1273E-02
   (  1,  4, 13)  (  1,  2, 15)  (  1,  2, 15)  (  1,  2, 15)  (  1,  2, 15)
  0  0.2973E-03  1  0.8829E-01  0  0.1488E-01  0  0.2810E-02  0  0.5374E-03
   (  1,  2, 15)  (  1,  2, 15)  (  1,  2, 15)  (  1,  2, 15)  (  1,  2, 15)
  1  0.3248E-01  0  0.5924E-02  0  0.1201E-02  1  0.1152E-01  0  0.2097E-02
   (  1,  2, 15)  (  1,  2, 15)  (  1,  2, 15)  (  1,  2, 15)  (  1,  2, 15)
  0  0.4405E-03  1  0.3894E-02  0  0.7204E-03  1  0.1343E-02  0  0.2851E-03
   (  1,  2, 15)  (  1,  2, 15)  (  1,  2, 15)  (  1,  2, 15)  (  1,  2, 15)
  1  0.4439E-03
   (  1,  2, 15)



 OUTPUT CONTROL FOR STRESS PERIOD    2   TIME STEP    1
    SAVE HEAD FOR ALL LAYERS
    SAVE BUDGET
 UBDSV1 SAVING "         STORAGE" ON UNIT  53 AT TIME STEP  1, STRESS PERIOD   2
 UBDSV2 SAVING "   CONSTANT HEAD" ON UNIT  53 AT TIME STEP  1, STRESS PERIOD   2
 UBDSV1 SAVING "FLOW RIGHT FACE " ON UNIT  53 AT TIME STEP  1, STRESS PERIOD   2
 UBDSV1 SAVING "FLOW FRONT FACE " ON UNIT  53 AT TIME STEP  1, STRESS PERIOD   2

 HEAD WILL BE SAVED ON UNIT   51 AT END OF TIME STEP    1, STRESS PERIOD    2
1
  VOLUMETRIC BUDGET FOR ENTIRE MODEL AT END OF TIME STEP    1, STRESS PERIOD   2
  ------------------------------------------------------------------------------

     CUMULATIVE VOLUMES      L**3       RATES FOR THIS TIME STEP      L**3/T
     ------------------                 ------------------------

           IN:                                      IN:
           ---                                      ---
             STORAGE =     2475920.5000               STORAGE =        1356.6687
       CONSTANT HEAD =           0.0000         CONSTANT HEAD =           0.0000
               WELLS =           0.0000                 WELLS =           0.0000
       RIVER LEAKAGE =      999973.8750         RIVER LEAKAGE =         547.6266
            RECHARGE =     7424815.0000              RECHARGE =        4065.1018

            TOTAL IN =    10900710.0000              TOTAL IN =        5969.3970

          OUT:                                     OUT:
          ----                                     ----
             STORAGE =      106239.0703               STORAGE =          58.2132
       CONSTANT HEAD =      381761.8125         CONSTANT HEAD =         209.0294
               WELLS =     4232474.5000                 WELLS =        2318.1370
       RIVER LEAKAGE =     6180352.5000         RIVER LEAKAGE =        3384.0825
            RECHARGE =           0.0000              RECHARGE =           0.0000

           TOTAL OUT =    10900828.0000             TOTAL OUT =        5969.4619

            IN - OUT =        -118.0000              IN - OUT =      -6.4941E-02

 PERCENT DISCREPANCY =          -0.00     PERCENT DISCREPANCY =          -0.00






         TIME SUMMARY AT END OF TIME STEP    1 IN STRESS PERIOD    2
                    SECONDS     MINUTES      HOURS       DAYS        YEARS
                    -----------------------------------------------------------
   TIME STEP LENGTH 1.57680E+08 2.62800E+06  43800.      1825.0      4.9966    
 STRESS PERIOD TIME 1.57680E+08 2.62800E+06  43800.      1825.0      4.9966    
         TOTAL TIME 1.57766E+08 2.62944E+06  43824.      1826.0      4.9993    
1
1
                            STRESS PERIOD NO.    3, LENGTH =   1.000000    
                            -----------------------------------------------

                              NUMBER OF TIME STEPS =     1

                               MULTIPLIER FOR DELT =     1.000

                            INITIAL TIME STEP SIZE =   1.000000    

 WELL NO.  LAYER   ROW   COL   STRESS RATE         
 --------------------------------------------------
      1      1      9     16      -866.8    
      2      1     11     13      -425.7    
      3      1     20     14      -437.3    
      4      1     26     10      -83.07    
      5      1     29      6      -72.97    
      6      1     34     12      -441.3    

      6 WELLS

 REACH NO.  LAYER   ROW   COL     STAGE      CONDUCTANCE     BOTTOM EL.         
 -------------------------------------------------------------------------------
      1      1      1     15       20.42           4787.           20.00    
      2      1      2     15       19.91           4742.           19.75    
      3      1      3     15       19.99           5492.           19.50    
      4      1      4     15       19.27           1590.           19.25    
      5      1      5     15       19.50           5637.           19.00    
      6      1      6     15       18.58           4406.           18.75    
      7      1      7     15       18.81           4429.           18.50    
      8      1      8     15       18.60           4888.           18.25    
      9      1      9     15       18.71           4226.           18.00    
     10      1     10     15       18.93           4330.           17.75    
     11      1     11     15       17.91           3504.           17.50    
     12      1     12     15       17.57           3366.           17.25    
     13      1     13     15       17.23           5567.           17.00    
     14      1     14     15       17.37           3705.           16.75    
     15      1     15     15       16.84           4087.           16.50    
     16      1     16     15       16.80           4525.           16.25    
     17      1     17     15       16.32           2765.           16.00    
     18      1     18     15       16.30           4262.           15.75    
     19      1     19     15       16.15           4252.           15.50    
     20      1     20     15       16.09           5690.           15.25    
     21      1     21     15       15.51           6752.           15.00    
     22      1     22     15       15.36           4245.           14.75    
     23      1     23     15       15.26           4470.           14.50    
     24      1     24     15       15.14           3963.           14.25    
     25      1     25     15       14.67           3235.           14.00    
     26      1     26     15       14.65           3558.           13.75    
     27      1     27     15       14.23           921.2           13.50    
     28      1     28     15       13.87           3187.           13.25    
     29      1     29     15       13.77           4690.           13.00    
     30      1     30     15       13.55           3804.           12.75    
     31      1     31     15       13.21           3628.           12.50    
     32      1     32     15       13.12           4877.           12.25    
     33      1     33     15       12.89           3463.           12.00    
     34      1     34     15       12.61           4895.           11.75    
     35      1     35     15       12.35           5345.           11.50    
     36      1     36     15       12.11           4571.           11.25    
     37      1     37     15       12.03           3408.           11.00    
     38      1     38     15       11.48           5125.           10.75    
     39      1     39     15       11.74           3453.           10.50    
     40      1     40     15       11.44           5151.           10.25    

     40 RIVER REACHES

                 RECHARGE =  9.358508E-05

 SOLVING FOR HEAD 


    14 CALLS TO PCG ROUTINE FOR TIME STEP   1 IN STRESS PERIOD    3
   143 TOTAL ITERATIONS

 MAXIMUM HEAD CHANGE FOR EACH ITERATION (1 INDICATES THE FIRST INNER ITERATION):

    HEAD CHANGE    HEAD CHANGE    HEAD CHANGE    HEAD CHANGE    HEAD CHANGE 
   LAYER,ROW,COL  LAYER,ROW,COL  LAYER,ROW,COL  LAYER,ROW,COL  LAYER,ROW,COL
 ---------------------------------------------------------------------------
  1  -2.872      0  -2.432      0  0.8643      0  0.3290      0  0.3372    
   (  1,  9,  4)  (  1,  8,  5)  (  1,  8,  5)  (  1, 35,  8)  (  1, 33,  2)
  0  0.1151      0  0.4201E-01  0  0.2398E-01  0  0.8995E-02  0  0.6710E-02
   (  1, 29,  4)  (  1, 17,  4)  (  1,  1,  7)  (  1,  4,  5)  (  1,  9,  4)
  0  0.3496E-02  0  0.1817E-02  0  0.8620E-03  0  0.3654E-03  0  0.1859E-03
   (  1, 26,  7)  (  1, 31,  2)  (  1, 27,  6)  (  1,  2,  9)  (  1,  3,  5)
  0  0.7495E-04  0 -0.5851E-04  0  0.4257E-04  0  0.1368E-04  0  0.4594E-05
   (  1, 24, 10)  (  1,  9,  4)  (  1,  9,  3)  (  1,  6, 10)  (  1,  3, 12)
  1  -1.064      0 -0.6850      0 -0.2742      0  0.1224      0  0.5404E-01
   (  1,  6, 15)  (  1,  9,  4)  (  1,  8,  5)  (  1,  8,  5)  (  1, 32,  1)
  0  0.2689E-01  0  0.1542E-01  0  0.7087E-02  0  0.6171E-02  0 -0.2086E-02
   (  1, 21,  3)  (  1, 31,  5)  (  1, 33,  2)  (  1,  8,  5)  (  1,  8,  5)
  0 -0.1426E-02  0  0.1240E-02  0 -0.3778E-03  0  0.2183E-03  0 -0.7630E-04
   (  1,  9,  4)  (  1,  9,  4)  (  1,  6,  6)  (  1,  6,  7)  (  1,  9, 12)
  0  0.3564E-04  0 -0.2069E-04  0  0.5146E-05  1  0.4133      0 -0.2601    
   (  1, 14,  2)  (  1, 17,  4)  (  1, 15,  2)  (  1,  9,  4)  (  1,  9,  4)
  0 -0.1742      0 -0.3865E-01  0  0.2447E-01  0  0.8507E-02  0  0.5043E-02
   (  1,  8,  5)  (  1,  7, 13)  (  1,  4,  5)  (  1,  6, 11)  (  1, 29,  4)
  0 -0.2044E-02  0  0.1318E-02  0 -0.1037E-02  0  0.9768E-03  0  0.3344E-03
   (  1,  8,  5)  (  1, 30,  8)  (  1, 10,  2)  (  1,  9,  4)  (  1,  4,  5)
  0 -0.1293E-03  0  0.5500E-04  0 -0.2440E-04  0 -0.1682E-04  0  0.5323E-05
   (  1,  6,  6)  (  1,  9,  8)  (  1, 20,  3)  (  1, 33,  2)  (  1,  9,  4)
  1 -0.1493      0 -0.7037E-01  0 -0.4965E-01  0 -0.1463E-01  0  0.8181E-02
   (  1,  6, 15)  (  1,  9,  4)  (  1,  8,  5)  (  1,  7, 13)  (  1,  4,  5)
  0  0.2824E-02  0  0.1609E-02  0 -0.6701E-03  0  0.4714E-03  0  0.2157E-03
   (  1, 20,  3)  (  1, 29,  4)  (  1,  8,  5)  (  1,  8,  5)  (  1,  2,  8)
  0  0.2176E-03  0 -0.1405E-03  0 -0.3997E-04  0  0.2528E-04  0 -0.1192E-04
   (  1,  9,  4)  (  1,  9,  4)  (  1,  6,  6)  (  1, 16,  2)  (  1, 14,  1)
  0 -0.5772E-05  1 -0.5432E-01  0  0.2225E-01  0 -0.1436E-01  0  0.4791E-02
   (  1, 33,  2)  (  1,  6, 15)  (  1,  9,  4)  (  1,  9,  4)  (  1,  8,  5)
  0 -0.2301E-02  0  0.1232E-02  0  0.4500E-03  0 -0.2138E-03  0  0.2213E-03
   (  1,  7, 14)  (  1, 20,  4)  (  1, 30,  4)  (  1, 12,  9)  (  1,  8,  5)
  0 -0.8258E-04  0 -0.1016E-03  0  0.4485E-04  0 -0.1637E-04  0  0.9423E-05
   (  1,  8,  5)  (  1,  9,  4)  (  1,  9,  4)  (  1,  6,  6)  (  1, 15,  2)
  1 -0.1764E-01  0  0.1171E-01  0 -0.2212E-02  0 -0.2437E-02  0  0.1414E-02
   (  1,  6, 15)  (  1,  9,  4)  (  1,  7, 13)  (  1,  8,  5)  (  1,  8,  4)
  0 -0.3341E-03  0 -0.1643E-03  0 -0.1038E-03  0 -0.3784E-04  0  0.3614E-04
   (  1,  8,  4)  (  1, 28,  6)  (  1, 19,  4)  (  1, 29,  4)  (  1,  8,  5)
  0  0.3258E-04  0 -0.1215E-04  0 -0.4492E-05  1 -0.6567E-02  0  0.4194E-02
   (  1,  9,  4)  (  1, 17,  4)  (  1, 33,  2)  (  1,  6, 15)  (  1,  9,  4)
  0  0.1182E-02  0 -0.1133E-02  0  0.3793E-03  0  0.1357E-03  0 -0.7572E-04
   (  1,  8,  5)  (  1,  8,  5)  (  1,  8,  4)  (  1, 30,  7)  (  1, 25,  2)
  0 -0.4294E-04  0  0.1425E-04  0  0.1384E-04  0 -0.7597E-05  1 -0.2667E-02
   (  1, 19,  4)  (  1, 28,  9)  (  1,  8,  1)  (  1,  9,  3)  (  1,  6, 15)
  0  0.1262E-02  0  0.5074E-03  0 -0.4127E-03  0 -0.1084E-03  0  0.5024E-04
   (  1,  9,  4)  (  1,  8,  5)  (  1,  8,  5)  (  1,  7, 14)  (  1, 30,  7)
  0 -0.2753E-04  0 -0.1461E-04  0  0.5404E-05  1 -0.1056E-02  0  0.3308E-03
   (  1, 25,  2)  (  1, 19,  4)  (  1, 27,  7)  (  1,  6, 15)  (  1,  9,  4)
  0  0.1776E-03  0 -0.1507E-03  0  0.3978E-04  0  0.1743E-04  0 -0.9054E-05
   (  1,  8,  5)  (  1,  8,  5)  (  1,  8,  5)  (  1, 30,  7)  (  1, 25,  3)
  1 -0.3967E-03  0  0.1043E-03  0 -0.5024E-04  0 -0.5699E-04  0  0.1396E-04
   (  1,  6, 15)  (  1,  9,  4)  (  1,  9,  4)  (  1,  8,  5)  (  1,  8,  5)
  0  0.6289E-05  1 -0.1440E-03  0 -0.2124E-04  0  0.2856E-04  0 -0.1842E-04
   (  1, 28,  6)  (  1,  6, 15)  (  1,  9,  4)  (  1,  9,  4)  (  1,  7, 14)
  0  0.4549E-05  1 -0.5064E-04  0  0.1128E-04  0  0.1394E-04  0 -0.7060E-05
   (  1,  8,  5)  (  1,  6, 15)  (  1,  8,  5)  (  1,  9,  4)  (  1,  7, 14)
  1 -0.1719E-04  0 -0.5704E-05  1  0.5284E-05
   (  1,  6, 15)  (  1,  9,  4)  (  1,  9,  4)

 MAXIMUM RESIDUAL FOR EACH ITERATION (1 INDICATES THE FIRST INNER ITERATION):

    RESIDUAL       RESIDUAL       RESIDUAL       RESIDUAL       RESIDUAL    
   LAYER,ROW,COL  LAYER,ROW,COL  LAYER,ROW,COL  LAYER,ROW,COL  LAYER,ROW,COL
 ---------------------------------------------------------------------------
  1  -1525.      0  -836.8      0  -328.0      0  -130.6      0  -38.77    
   (  1, 20, 15)  (  1, 20, 15)  (  1, 20, 15)  (  1, 20, 15)  (  1, 20, 15)
  0  -17.18      0  -7.698      0  -2.530      0  -1.027      0 -0.8368    
   (  1, 20, 15)  (  1, 20, 15)  (  1, 20, 15)  (  1, 20, 15)  (  1, 20, 15)
  0 -0.3120      0 -0.1502      0 -0.7099E-01  0  0.3594E-01  0  0.2159E-01
   (  1, 20, 15)  (  1, 20, 15)  (  1, 20, 15)  (  1, 39, 15)  (  1, 39, 15)
  0  0.1178E-01  0  0.7410E-02  0  0.5279E-02  0  0.2729E-02  0  0.1150E-02
   (  1, 39, 15)  (  1, 39, 15)  (  1, 39, 15)  (  1, 39, 15)  (  1, 39, 15)
  1  -214.5      0  -149.3      0  -95.25      0  -38.95      0  -18.21    
   (  1, 20, 15)  (  1, 20, 15)  (  1, 20, 15)  (  1, 20, 15)  (  1, 20, 15)
  0  -8.870      0  -4.173      0  -1.695      0 -0.8497      0 -0.4352    
   (  1, 20, 15)  (  1, 20, 15)  (  1, 20, 15)  (  1, 20, 15)  (  1, 20, 15)
  0 -0.3424      0 -0.1765      0 -0.6974E-01  0 -0.3122E-01  0 -0.1338E-01
   (  1, 20, 15)  (  1, 20, 15)  (  1, 20, 15)  (  1, 20, 15)  (  1, 20, 15)
  0 -0.5475E-02  0 -0.2514E-02  0 -0.1012E-02  1  -88.82      0  -50.58    
   (  1, 20, 15)  (  1, 20, 15)  (  1, 20, 15)  (  1, 20, 15)  (  1, 20, 15)
  0  -30.34      0  -13.34      0  -6.152      0  -3.211      0  -1.511    
   (  1, 20, 15)  (  1, 20, 15)  (  1, 20, 15)  (  1, 20, 15)  (  1, 20, 15)
  0 -0.7153      0 -0.3769      0 -0.2241      0 -0.1533      0 -0.6836E-01
   (  1, 20, 15)  (  1, 20, 15)  (  1, 20, 15)  (  1, 20, 15)  (  1, 20, 15)
  0 -0.2592E-01  0  0.1183E-01  0 -0.4863E-02  0 -0.2028E-02  0 -0.8706E-03
   (  1, 20, 15)  (  1,  9, 12)  (  1, 20, 15)  (  1, 20, 15)  (  1, 20, 15)
  1  -16.72      0  -12.84      0  -8.546      0  -3.942      0  -1.800    
   (  1, 20, 15)  (  1, 20, 15)  (  1, 20, 15)  (  1, 20, 15)  (  1, 20, 15)
  0 -0.9667      0 -0.4741      0 -0.2232      0 -0.1201      0 -0.5644E-01
   (  1, 20, 15)  (  1, 20, 15)  (  1, 20, 15)  (  1, 20, 15)  (  1, 20, 15)
  0 -0.3951E-01  0 -0.2272E-01  0 -0.8725E-02  0  0.4234E-02  0 -0.1678E-02
   (  1, 20, 15)  (  1, 20, 15)  (  1, 20, 15)  (  1,  9, 12)  (  1, 20, 15)
  0 -0.7023E-03  1  -5.045      0  -3.689      0   2.250      0   1.250    
   (  1, 20, 15)  (  1, 20, 15)  (  1, 20, 15)  (  1,  7, 14)  (  1,  7, 14)
  0 -0.5011      0 -0.2658      0 -0.1368      0  0.7081E-01  0  0.3304E-01
   (  1, 20, 15)  (  1, 20, 15)  (  1, 20, 15)  (  1,  8, 13)  (  1,  8, 13)
  0 -0.1943E-01  0 -0.1406E-01  0 -0.7117E-02  0  0.2986E-02  0  0.1519E-02
   (  1, 20, 15)  (  1, 20, 15)  (  1, 20, 15)  (  1,  9, 12)  (  1,  9, 12)
  1   2.104      0   1.160      0  0.8292      0  0.4377      0  0.1594    
   (  1,  6, 15)  (  1,  7, 14)  (  1,  7, 14)  (  1,  7, 14)  (  1,  7, 14)
  0 -0.7460E-01  0  0.4671E-01  0  0.2581E-01  0  0.1381E-01  0  0.5949E-02
   (  1, 20, 15)  (  1,  8, 13)  (  1,  8, 13)  (  1,  8, 13)  (  1,  8, 13)
  0 -0.4491E-02  0 -0.2146E-02  0  0.1073E-02  1  0.7480      0  0.4387    
   (  1, 20, 15)  (  1, 20, 15)  (  1,  9, 12)  (  1,  6, 15)  (  1,  7, 14)
  0  0.3372      0  0.1653      0  0.5926E-01  0 -0.2493E-01  0  0.1785E-01
   (  1,  7, 14)  (  1,  7, 14)  (  1,  7, 14)  (  1, 20, 15)  (  1,  8, 13)
  0  0.9742E-02  0  0.5237E-02  0  0.1776E-02  0  0.1335E-02  1  0.1957    
   (  1,  8, 13)  (  1,  8, 13)  (  1,  8, 13)  (  1,  8, 13)  (  1,  6, 15)
  0  0.1650      0  0.1287      0  0.5872E-01  0  0.2109E-01  0 -0.8895E-02
   (  1,  7, 14)  (  1,  7, 14)  (  1,  7, 14)  (  1,  7, 14)  (  1,  7, 13)
  0  0.6454E-02  0  0.3589E-02  0  0.1849E-02  1  0.6244E-01  0  0.6150E-01
   (  1,  8, 13)  (  1,  8, 13)  (  1,  8, 13)  (  1,  7, 14)  (  1,  7, 14)
  0  0.4758E-01  0  0.2108E-01  0  0.7518E-02  0  0.3189E-02  0  0.2300E-02
   (  1,  7, 14)  (  1,  7, 14)  (  1,  7, 14)  (  1,  8, 13)  (  1,  8, 13)
  1  0.2438E-01  0  0.2051E-01  0  0.1733E-01  0  0.7754E-02  0  0.3129E-02
   (  1,  7, 14)  (  1,  7, 14)  (  1,  7, 14)  (  1,  7, 14)  (  1,  7, 14)
  0  0.1194E-02  1  0.9234E-02  0  0.8338E-02  0  0.6800E-02  0  0.2403E-02
   (  1,  7, 14)  (  1,  7, 14)  (  1,  7, 14)  (  1,  7, 14)  (  1,  7, 14)
  0  0.1056E-02  1  0.3365E-02  0  0.3130E-02  0  0.2635E-02  0  0.1023E-02
   (  1,  7, 14)  (  1,  7, 14)  (  1,  7, 14)  (  1,  7, 14)  (  1,  7, 14)
  1  0.1313E-02  0  0.1126E-02  1  0.2828E-02
   (  1,  6, 15)  (  1,  7, 14)  (  1,  6, 15)



 OUTPUT CONTROL FOR STRESS PERIOD    3   TIME STEP    1
    SAVE HEAD FOR ALL LAYERS
    SAVE BUDGET
 UBDSV2 SAVING "   CONSTANT HEAD" ON UNIT  53 AT TIME STEP  1, STRESS PERIOD   3
 UBDSV1 SAVING "FLOW RIGHT FACE " ON UNIT  53 AT TIME STEP  1, STRESS PERIOD   3
 UBDSV1 SAVING "FLOW FRONT FACE " ON UNIT  53 AT TIME STEP  1, STRESS PERIOD   3

 HEAD WILL BE SAVED ON UNIT   51 AT END OF TIME STEP    1, STRESS PERIOD    3
1
  VOLUMETRIC BUDGET FOR ENTIRE MODEL AT END OF TIME STEP    1, STRESS PERIOD   3
  ------------------------------------------------------------------------------

     CUMULATIVE VOLUMES      L**3       RATES FOR THIS TIME STEP      L**3/T
     ------------------                 ------------------------

           IN:                                      IN:
           ---                                      ---
             STORAGE =     2475920.5000               STORAGE =           0.0000
       CONSTANT HEAD =          17.3420         CONSTANT HEAD =          17.3420
               WELLS =           0.0000                 WELLS =           0.0000
       RIVER LEAKAGE =     1001291.5000         RIVER LEAKAGE =        1317.6431
            RECHARGE =     7428880.0000              RECHARGE =        4065.1018

            TOTAL IN =    10906109.0000              TOTAL IN =        5400.0869

          OUT:                                     OUT:
          ----                                     ----
             STORAGE =      106239.0703               STORAGE =           0.0000
       CONSTANT HEAD =      381892.0625         CONSTANT HEAD =         130.2495
               WELLS =     4234801.5000                 WELLS =        2327.2019
       RIVER LEAKAGE =     6183295.0000         RIVER LEAKAGE =        2942.6489
            RECHARGE =           0.0000              RECHARGE =           0.0000

           TOTAL OUT =    10906228.0000             TOTAL OUT =        5400.1006

            IN - OUT =        -119.0000              IN - OUT =      -1.3672E-02

 PERCENT DISCREPANCY =          -0.00     PERCENT DISCREPANCY =          -0.00






         TIME SUMMARY AT END OF TIME STEP    1 IN STRESS PERIOD    3
                    SECONDS     MINUTES      HOURS       DAYS        YEARS
                    -----------------------------------------------------------
   TIME STEP LENGTH  86400.      1440.0      24.000      1.0000     2.73785E-03
 STRESS PERIOD TIME  86400.      1440.0      24.000      1.0000     2.73785E-03
         TOTAL TIME 1.57853E+08 2.63088E+06  43848.      1827.0      5.0021    
1

 Run end date and time (yyyy/mm/dd hh:mm:ss): 2016/05/12 14:02:15
 Elapsed run time:  0.030 Seconds

