                                  MODFLOW-2005     
      U.S. GEOLOGICAL SURVEY MODULAR FINITE-DIFFERENCE GROUND-WATER FLOW MODEL
                            VERSION 1.11.00 8/8/2013

 LIST FILE: freyberg.list
                         UNIT    2

 OPENING freyberg.hyd
 FILE TYPE:HYD   UNIT   36   STATUS:OLD    
 FORMAT:FORMATTED              ACCESS:SEQUENTIAL          

 OPENING freyberg.dis
 FILE TYPE:DIS   UNIT   11   STATUS:OLD    
 FORMAT:FORMATTED              ACCESS:SEQUENTIAL          

 OPENING freyberg.lpf
 FILE TYPE:LPF   UNIT   31   STATUS:OLD    
 FORMAT:FORMATTED              ACCESS:SEQUENTIAL          

 OPENING freyberg.pcg
 FILE TYPE:PCG   UNIT   32   STATUS:OLD    
 FORMAT:FORMATTED              ACCESS:SEQUENTIAL          

 OPENING freyberg.bas
 FILE TYPE:BAS6   UNIT   13   STATUS:OLD    
 FORMAT:FORMATTED              ACCESS:SEQUENTIAL          

 OPENING freyberg.rch
 FILE TYPE:RCH   UNIT   19   STATUS:OLD    
 FORMAT:FORMATTED              ACCESS:SEQUENTIAL          

 OPENING freyberg.wel
 FILE TYPE:WEL   UNIT   20   STATUS:OLD    
 FORMAT:FORMATTED              ACCESS:SEQUENTIAL          

 OPENING freyberg.riv
 FILE TYPE:RIV   UNIT   18   STATUS:OLD    
 FORMAT:FORMATTED              ACCESS:SEQUENTIAL          

 OPENING freyberg.oc
 FILE TYPE:OC   UNIT   14   STATUS:OLD    
 FORMAT:FORMATTED              ACCESS:SEQUENTIAL          

 OPENING freyberg.hds
 FILE TYPE:DATA(BINARY)   UNIT   51   STATUS:REPLACE
 FORMAT:UNFORMATTED            ACCESS:STREAM              

 OPENING freyberg.ddn
 FILE TYPE:DATA(BINARY)   UNIT   52   STATUS:REPLACE
 FORMAT:UNFORMATTED            ACCESS:STREAM              

 OPENING freyberg.cbc
 FILE TYPE:DATA(BINARY)   UNIT   53   STATUS:REPLACE
 FORMAT:UNFORMATTED            ACCESS:STREAM              

 OPENING freyberg.hyd.bin
 FILE TYPE:DATA(BINARY)   UNIT  536   STATUS:REPLACE
 FORMAT:UNFORMATTED            ACCESS:STREAM              

 BAS -- BASIC PACKAGE, VERSION 7, 5/2/2005 INPUT READ FROM UNIT   13

 MODFLOW was compiled using mixed precision
 Precision of REAL variables:           6
 Precision of DOUBLE PRECISION variables:          15

 DISCRETIZATION INPUT DATA READ FROM UNIT   11
 # Discretization file for MODFLOW, generated by Flopy.
    1 LAYERS        40 ROWS        20 COLUMNS
    3 STRESS PERIOD(S) IN SIMULATION
 MODEL TIME UNIT IS DAYS
 MODEL LENGTH UNIT IS METERS
  Confining bed flag for each layer:
   0



                               DELR
 READING ON UNIT   11 WITH FORMAT: (20G15.6)           



                               DELC
 READING ON UNIT   11 WITH FORMAT: (40G15.6)           

 TOP ELEVATION OF LAYER 1 =   35.0000    

 OPENING FILE ON UNIT   99:
 botm.ref                                                                                                                                                                                                



             MODEL LAYER BOTTOM EL. FOR LAYER   1
 READING ON UNIT   99 WITH FORMAT: (10E12.4)           


 STRESS PERIOD     LENGTH       TIME STEPS     MULTIPLIER FOR DELT    SS FLAG
 ----------------------------------------------------------------------------
        1         1.000000          1                    1.000         SS
        2         1825.000          1                    1.000         TR
        3         1.000000          1                    1.000         SS

 COMBINED STEADY-STATE AND TRANSIENT SIMULATION




 # Basic package file for MODFLOW, generated by Flopy.                           
 THE FREE FORMAT OPTION HAS BEEN SELECTED

 OPENING FILE ON UNIT   99:
 ibound.ref                                                                                                                                                                                              



                     BOUNDARY ARRAY FOR LAYER   1
 READING ON UNIT   99 WITH FORMAT: (25I3)              

 AQUIFER HEAD WILL BE SET TO  -999.99     AT ALL NO-FLOW NODES (IBOUND=0).

 OPENING FILE ON UNIT   99:
 strt.ref                                                                                                                                                                                                



                       INITIAL HEAD FOR LAYER   1
 READING ON UNIT   99 WITH FORMAT: (10E12.4)           
 # Output control package file for MODFLOW, generated by Flopy.

 OUTPUT CONTROL IS SPECIFIED ONLY AT TIME STEPS FOR WHICH OUTPUT IS DESIRED
 COMPACT CELL-BY-CELL BUDGET FILES WILL BE WRITTEN
 AUXILIARY DATA WILL BE SAVED IN CELL-BY-CELL BUDGET FILES
 HEAD PRINT FORMAT CODE IS   0    DRAWDOWN PRINT FORMAT CODE IS   0
 HEADS WILL BE SAVED ON UNIT   51    DRAWDOWNS WILL BE SAVED ON UNIT   52

 LPF -- LAYER-PROPERTY FLOW PACKAGE, VERSION 7, 5/2/2005
         INPUT READ FROM UNIT   31
 # LPF for MODFLOW-2005, generated by Flopy.
 CELL-BY-CELL FLOWS WILL BE SAVED ON UNIT   53
 HEAD AT CELLS THAT CONVERT TO DRY= -1.00000E+30
 No named parameters

   LAYER FLAGS:
 LAYER       LAYTYP        LAYAVG         CHANI        LAYVKA        LAYWET
 ---------------------------------------------------------------------------
    1             1             0     1.000E+00             0             0

   INTERPRETATION OF LAYER FLAGS:
                        INTERBLOCK     HORIZONTAL    DATA IN
         LAYER TYPE   TRANSMISSIVITY   ANISOTROPY   ARRAY VKA   WETTABILITY
 LAYER      (LAYTYP)      (LAYAVG)       (CHANI)      (LAYVKA)      (LAYWET)
 ---------------------------------------------------------------------------
    1   CONVERTIBLE      HARMONIC     1.000E+00    VERTICAL K  NON-WETTABLE

 WETTING CAPABILITY IS NOT ACTIVE IN ANY LAYER

 OPENING FILE ON UNIT   99:
 hk.ref                                                                                                                                                                                                  



              HYD. COND. ALONG ROWS FOR LAYER   1
 READING ON UNIT   99 WITH FORMAT: (FREE)              

            1           2           3           4           5           6           7           8           9          10
           11          12          13          14          15          16          17          18          19          20
 ........................................................................................................................
   1    4.946       4.946       4.946       4.946       4.946       4.946       4.946       4.946       4.946       4.946    
        4.946       4.946       4.946       4.946       4.946       4.946       4.946       4.946       4.946       4.946    
   2    4.946       4.946       4.946       4.946       4.946       4.946       4.946       4.946       4.946       4.946    
        4.946       4.946       4.946       4.946       4.946       4.946       4.946       4.946       4.946       4.946    
   3    4.946       4.946       4.946       4.946       4.946       4.946       4.946       4.946       4.946       4.946    
        4.946       4.946       4.946       4.946       4.946       4.946       4.946       4.946       4.946       4.946    
   4    4.946       4.946       4.946       4.946       4.946       4.946       4.946       4.946       4.946       4.946    
        4.946       4.946       4.946       4.946       4.946       4.946       4.946       4.946       4.946       4.946    
   5    4.946       4.946       4.946       4.946       4.946       4.946       4.946       4.946       4.946       4.946    
        4.946       4.946       4.946       4.946       4.946       4.946       4.946       4.946       4.946       4.946    
   6    4.946       4.946       4.946       4.946       4.946       4.946       4.946       4.946       4.946       4.946    
        4.946       4.946       4.946       4.946       4.946       4.946       4.946       4.946       4.946       4.946    
   7    4.946       4.946       4.946       4.946       4.946       4.946       4.946       4.946       4.946       4.946    
        4.946       4.946       4.946       4.946       4.946       4.946       4.946       4.946       4.946       4.946    
   8    4.946       4.946       4.946       4.946       4.946       4.946       4.946       4.946       4.946       4.946    
        4.946       4.946       4.946       4.946       4.946       4.946       4.946       4.946       4.946       4.946    
   9    4.946       4.946       4.946       4.946       4.946       4.946       4.946       4.946       4.946       4.946    
        4.946       4.946       4.946       4.946       4.946       4.946       4.946       4.946       4.946       4.946    
  10    4.946       4.946       4.946       4.946       4.946       4.946       4.946       4.946       4.946       4.946    
        4.946       4.946       4.946       4.946       4.946       4.946       4.946       4.946       4.946       4.946    
  11    4.946       4.946       4.946       4.946       4.946       4.946       4.946       4.946       4.946       4.946    
        4.946       4.946       4.946       4.946       4.946       4.946       4.946       4.946       4.946       4.946    
  12    4.946       4.946       4.946       4.946       4.946       4.946       4.946       4.946       4.946       4.946    
        4.946       4.946       4.946       4.946       4.946       4.946       4.946       4.946       4.946       4.946    
  13    4.946       4.946       4.946       4.946       4.946       4.946       4.946       4.946       4.946       4.946    
        4.946       4.946       4.946       4.946       4.946       4.946       4.946       4.946       4.946       4.946    
  14    4.946       4.946       4.946       4.946       4.946       4.946       4.946       4.946       4.946       4.946    
        4.946       4.946       4.946       4.946       4.946       4.946       4.946       4.946       4.946       4.946    
  15    4.946       4.946       4.946       4.946       4.946       4.946       4.946       4.946       4.946       4.946    
        4.946       4.946       4.946       4.946       4.946       4.946       4.946       4.946       4.946       4.946    
  16    4.946       4.946       4.946       4.946       4.946       4.946       4.946       4.946       4.946       4.946    
        4.946       4.946       4.946       4.946       4.946       4.946       4.946       4.946       4.946       4.946    
  17    4.946       4.946       4.946       4.946       4.946       4.946       4.946       4.946       4.946       4.946    
        4.946       4.946       4.946       4.946       4.946       4.946       4.946       4.946       4.946       4.946    
  18    4.946       4.946       4.946       4.946       4.946       4.946       4.946       4.946       4.946       4.946    
        4.946       4.946       4.946       4.946       4.946       4.946       4.946       4.946       4.946       4.946    
  19    4.946       4.946       4.946       4.946       4.946       4.946       4.946       4.946       4.946       4.946    
        4.946       4.946       4.946       4.946       4.946       4.946       4.946       4.946       4.946       4.946    
  20    4.946       4.946       4.946       4.946       4.946       4.946       4.946       4.946       4.946       4.946    
        4.946       4.946       4.946       4.946       4.946       4.946       4.946       4.946       4.946       4.946    
  21    4.946       4.946       4.946       4.946       4.946       4.946       4.946       4.946       4.946       4.946    
        4.946       4.946       4.946       4.946       4.946       4.946       4.946       4.946       4.946       4.946    
  22    4.946       4.946       4.946       4.946       4.946       4.946       4.946       4.946       4.946       4.946    
        4.946       4.946       4.946       4.946       4.946       4.946       4.946       4.946       4.946       4.946    
  23    4.946       4.946       4.946       4.946       4.946       4.946       4.946       4.946       4.946       4.946    
        4.946       4.946       4.946       4.946       4.946       4.946       4.946       4.946       4.946       4.946    
  24    4.946       4.946       4.946       4.946       4.946       4.946       4.946       4.946       4.946       4.946    
        4.946       4.946       4.946       4.946       4.946       4.946       4.946       4.946       4.946       4.946    
  25    4.946       4.946       4.946       4.946       4.946       4.946       4.946       4.946       4.946       4.946    
        4.946       4.946       4.946       4.946       4.946       4.946       4.946       4.946       4.946       4.946    
  26    4.946       4.946       4.946       4.946       4.946       4.946       4.946       4.946       4.946       4.946    
        4.946       4.946       4.946       4.946       4.946       4.946       4.946       4.946       4.946       4.946    
  27    4.946       4.946       4.946       4.946       4.946       4.946       4.946       4.946       4.946       4.946    
        4.946       4.946       4.946       4.946       4.946       4.946       4.946       4.946       4.946       4.946    
  28    4.946       4.946       4.946       4.946       4.946       4.946       4.946       4.946       4.946       4.946    
        4.946       4.946       4.946       4.946       4.946       4.946       4.946       4.946       4.946       4.946    
  29    4.946       4.946       4.946       4.946       4.946       4.946       4.946       4.946       4.946       4.946    
        4.946       4.946       4.946       4.946       4.946       4.946       4.946       4.946       4.946       4.946    
  30    4.946       4.946       4.946       4.946       4.946       4.946       4.946       4.946       4.946       4.946    
        4.946       4.946       4.946       4.946       4.946       4.946       4.946       4.946       4.946       4.946    
  31    4.946       4.946       4.946       4.946       4.946       4.946       4.946       4.946       4.946       4.946    
        4.946       4.946       4.946       4.946       4.946       4.946       4.946       4.946       4.946       4.946    
  32    4.946       4.946       4.946       4.946       4.946       4.946       4.946       4.946       4.946       4.946    
        4.946       4.946       4.946       4.946       4.946       4.946       4.946       4.946       4.946       4.946    
  33    4.946       4.946       4.946       4.946       4.946       4.946       4.946       4.946       4.946       4.946    
        4.946       4.946       4.946       4.946       4.946       4.946       4.946       4.946       4.946       4.946    
  34    4.946       4.946       4.946       4.946       4.946       4.946       4.946       4.946       4.946       4.946    
        4.946       4.946       4.946       4.946       4.946       4.946       4.946       4.946       4.946       4.946    
  35    4.946       4.946       4.946       4.946       4.946       4.946       4.946       4.946       4.946       4.946    
        4.946       4.946       4.946       4.946       4.946       4.946       4.946       4.946       4.946       4.946    
  36    4.946       4.946       4.946       4.946       4.946       4.946       4.946       4.946       4.946       4.946    
        4.946       4.946       4.946       4.946       4.946       4.946       4.946       4.946       4.946       4.946    
  37    4.946       4.946       4.946       4.946       4.946       4.946       4.946       4.946       4.946       4.946    
        4.946       4.946       4.946       4.946       4.946       4.946       4.946       4.946       4.946       4.946    
  38    4.946       4.946       4.946       4.946       4.946       4.946       4.946       4.946       4.946       4.946    
        4.946       4.946       4.946       4.946       4.946       4.946       4.946       4.946       4.946       4.946    
  39    4.946       4.946       4.946       4.946       4.946       4.946       4.946       4.946       4.946       4.946    
        4.946       4.946       4.946       4.946       4.946       4.946       4.946       4.946       4.946       4.946    
  40    4.946       4.946       4.946       4.946       4.946       4.946       4.946       4.946       4.946       4.946    
        4.946       4.946       4.946       4.946       4.946       4.946       4.946       4.946       4.946       4.946    

      VERTICAL HYD. COND. =   1.00000     FOR LAYER   1

         SPECIFIC STORAGE =  1.000000E-04 FOR LAYER   1

           SPECIFIC YIELD =  0.250000     FOR LAYER   1

 WEL -- WELL PACKAGE, VERSION 7, 5/2/2005 INPUT READ FROM UNIT   20
 # Well file for MODFLOW, generated by Flopy.
 No named parameters
 MAXIMUM OF      6 ACTIVE WELLS AT ONE TIME


     0 Well parameters

 RIV -- RIVER PACKAGE, VERSION 7, 5/2/2005 INPUT READ FROM UNIT   18
 # RIV for MODFLOW, generated by Flopy.
 No named parameters
 MAXIMUM OF     40 ACTIVE RIVER REACHES AT ONE TIME


     0 River parameters

 RCH -- RECHARGE PACKAGE, VERSION 7, 5/2/2005 INPUT READ FROM UNIT   19
 # RCH for MODFLOW, generated by Flopy.
 No named parameters
 OPTION 3 -- RECHARGE TO HIGHEST ACTIVE NODE IN EACH VERTICAL COLUMN


     0 Recharge parameters

 PCG -- CONJUGATE-GRADIENT SOLUTION PACKAGE, VERSION 7, 5/2/2005
 MAXIMUM OF    100 CALLS OF SOLUTION ROUTINE
 MAXIMUM OF     25 INTERNAL ITERATIONS PER CALL TO SOLUTION ROUTINE
 MATRIX PRECONDITIONING TYPE :    1
 IHCOFADD option -- When an active cell is surrounded by dry cells, convert
 the cell to dry only if storage and head-dependent boundary flow are 0.



                                    SOLUTION BY THE CONJUGATE-GRADIENT METHOD
                                   -------------------------------------------
                    MAXIMUM NUMBER OF CALLS TO PCG ROUTINE =      100
                        MAXIMUM ITERATIONS PER CALL TO PCG =       25
                               MATRIX PRECONDITIONING TYPE =        1
        RELAXATION FACTOR (ONLY USED WITH PRECOND. TYPE 1) =    0.10000E+01
 PARAMETER OF POLYNOMIAL PRECOND. = 2 (2) OR IS CALCULATED :        2
                         HEAD CHANGE CRITERION FOR CLOSURE =    0.10000E-04
                     RESIDUAL CHANGE CRITERION FOR CLOSURE =    0.10000E+00
            PCG HEAD AND RESIDUAL CHANGE PRINTOUT INTERVAL =        5
     PRINTING FROM SOLVER IS LIMITED(1) OR SUPPRESSED (>1) =        0
                            STEADY-STATE DAMPING PARAMETER =    0.70000E+00
                               TRANSIENT DAMPING PARAMETER =    0.70000E+00

 HYD -- HYDROGRAPH DATA FOR BAS PACKAGE, VERSION 7, 07/14/2006
         INPUT READ FROM UNIT 36
 HYDROGRAPH VALUES WILL BE SAVED ON UNIT: 536
 HYDROGRAPH VALUES AT DRY CELLS WILL BE:  -1.00000E+07

 ARR INTYP  KLAY     XL            YL         HYDLBL
 ----------------------------------------------------------------
 HD   I      1   4.12500E+03   9.12500E+03  HDI001or03c16       
 HD   I      1   2.62500E+03   9.12500E+03  HDI001or03c10       
 HD   I      1   2.37500E+03   8.87500E+03  HDI001or04c9        
 HD   I      1   6.25000E+02   7.37500E+03  HDI001or10c2        
 HD   I      1   2.87500E+03   6.37500E+03  HDI001or14c11       
 HD   I      1   4.37500E+03   5.87500E+03  HDI001or16c17       
 HD   I      1   2.87500E+03   4.37500E+03  HDI001or22c11       
 HD   I      1   4.12500E+03   4.12500E+03  HDI001or23c16       
 HD   I      1   1.37500E+03   3.62500E+03  HDI001or25c5        
 HD   I      1   1.87500E+03   3.12500E+03  HDI001or27c7        
 HD   I      1   4.12500E+03   2.37500E+03  HDI001or30c16       
 HD   I      1   2.12500E+03   1.37500E+03  HDI001or34c8        
 HD   I      1   2.87500E+03   1.12500E+03  HDI001or35c11       
 HD   I      1   6.25000E+02   9.37500E+03  HDI001fr02c02       
 HD   I      1   3.37500E+03   9.62500E+03  HDI001fr01c13       
 HD   I      1   3.87500E+03   7.62500E+03  HDI001fr09c15       
 HD   I      1   2.62500E+03   3.62500E+03  HDI001fr25c10       
1
                            STRESS PERIOD NO.    1, LENGTH =   1.000000    
                            -----------------------------------------------

                              NUMBER OF TIME STEPS =     1

                               MULTIPLIER FOR DELT =     1.000

                            INITIAL TIME STEP SIZE =   1.000000    

 WELL NO.  LAYER   ROW   COL   STRESS RATE         
 --------------------------------------------------
      1      1      9     16      -628.8    
      2      1     11     13      -330.9    
      3      1     20     14      -339.7    
      4      1     26     10      -66.29    
      5      1     29      6      -64.28    
      6      1     34     12      -444.3    

      6 WELLS

 REACH NO.  LAYER   ROW   COL     STAGE      CONDUCTANCE     BOTTOM EL.         
 -------------------------------------------------------------------------------
      1      1      1     15       20.19           5776.           20.00    
      2      1      2     15       19.60           3790.           19.75    
      3      1      3     15       19.89           5532.           19.50    
      4      1      4     15       19.38           6135.           19.25    
      5      1      5     15       19.28           5536.           19.00    
      6      1      6     15       19.22           3842.           18.75    
      7      1      7     15       18.90           2866.           18.50    
      8      1      8     15       18.42           4318.           18.25    
      9      1      9     15       18.10           4796.           18.00    
     10      1     10     15       18.88           4638.           17.75    
     11      1     11     15       18.01           4619.           17.50    
     12      1     12     15       17.35           5474.           17.25    
     13      1     13     15       17.33           3453.           17.00    
     14      1     14     15       17.56           6251.           16.75    
     15      1     15     15       16.76           5307.           16.50    
     16      1     16     15       16.28           6982.           16.25    
     17      1     17     15       16.41           5070.           16.00    
     18      1     18     15       15.91           4556.           15.75    
     19      1     19     15       16.06           5303.           15.50    
     20      1     20     15       16.06           4765.           15.25    
     21      1     21     15       15.52           5390.           15.00    
     22      1     22     15       15.39           2649.           14.75    
     23      1     23     15       15.16           4347.           14.50    
     24      1     24     15       15.01           5110.           14.25    
     25      1     25     15       14.90           3705.           14.00    
     26      1     26     15       14.49           3711.           13.75    
     27      1     27     15       14.17           4484.           13.50    
     28      1     28     15       14.01           4405.           13.25    
     29      1     29     15       13.73           5105.           13.00    
     30      1     30     15       13.58           5620.           12.75    
     31      1     31     15       13.32           3492.           12.50    
     32      1     32     15       13.14           5515.           12.25    
     33      1     33     15       12.85           4310.           12.00    
     34      1     34     15       12.55           6270.           11.75    
     35      1     35     15       12.22           5453.           11.50    
     36      1     36     15       12.25           4212.           11.25    
     37      1     37     15       11.85           6121.           11.00    
     38      1     38     15       11.90           6083.           10.75    
     39      1     39     15       11.48           3721.           10.50    
     40      1     40     15       11.24           5427.           10.25    

     40 RIVER REACHES

                 RECHARGE =  1.382208E-04

 SOLVING FOR HEAD 


    17 CALLS TO PCG ROUTINE FOR TIME STEP   1 IN STRESS PERIOD    1
   215 TOTAL ITERATIONS

 MAXIMUM HEAD CHANGE FOR EACH ITERATION (1 INDICATES THE FIRST INNER ITERATION):

    HEAD CHANGE    HEAD CHANGE    HEAD CHANGE    HEAD CHANGE    HEAD CHANGE 
   LAYER,ROW,COL  LAYER,ROW,COL  LAYER,ROW,COL  LAYER,ROW,COL  LAYER,ROW,COL
 ---------------------------------------------------------------------------
  1  -48.70      0  -35.35      0   15.92      0   7.299      0  -3.359    
   (  1, 39, 11)  (  1,  9,  4)  (  1, 32,  1)  (  1, 22,  4)  (  1, 33,  2)
  0  -1.345      0 -0.5422      0 -0.2846      0 -0.1620      0 -0.8812E-01
   (  1, 29,  5)  (  1, 37,  5)  (  1, 37,  5)  (  1, 19,  4)  (  1,  8,  5)
  0  0.4160E-01  0 -0.1948E-01  0  0.1833E-01  0  0.6772E-02  0  0.2293E-02
   (  1, 13,  1)  (  1, 12,  2)  (  1,  9,  4)  (  1, 29,  3)  (  1, 35,  4)
  0  0.1017E-02  0 -0.5710E-03  0 -0.1737E-03  0 -0.5059E-04  0 -0.7824E-04
   (  1,  3,  6)  (  1,  1,  2)  (  1,  5, 12)  (  1,  7,  8)  (  1,  9,  4)
  0  0.4248E-04  0 -0.1226E-04  0  0.8963E-05  1  -12.97      0  -13.43    
   (  1,  9,  1)  (  1, 14,  3)  (  1, 14,  2)  (  1, 39, 12)  (  1,  9,  4)
  0  -5.603      0   2.315      0  -1.264      0 -0.4823      0 -0.2100    
   (  1,  8,  5)  (  1, 39, 11)  (  1, 33,  2)  (  1, 28,  5)  (  1, 14,  1)
  0 -0.9228E-01  0 -0.3207E-01  0 -0.2393E-01  0 -0.1115E-01  0  0.1378E-01
   (  1,  8,  4)  (  1, 23,  5)  (  1, 33,  6)  (  1,  9,  4)  (  1,  9,  4)
  0  0.3605E-02  0  0.1812E-02  0 -0.6949E-03  0  0.3937E-03  0  0.1600E-03
   (  1,  2,  8)  (  1, 13,  3)  (  1,  6,  8)  (  1, 34,  3)  (  1, 33,  6)
  0 -0.7588E-04  0  0.4814E-04  0 -0.3268E-04  0 -0.9886E-05  1   11.85    
   (  1, 10,  1)  (  1,  9,  4)  (  1,  9,  2)  (  1,  2,  1)  (  1,  9,  4)
  0  -7.992      0  -3.358      0 -0.8104      0 -0.5586      0 -0.1782    
   (  1,  9,  4)  (  1,  8,  5)  (  1,  3,  6)  (  1, 33,  2)  (  1, 28,  4)
  0 -0.8131E-01  0 -0.4321E-01  0 -0.1525E-01  0 -0.6925E-02  0 -0.8116E-02
   (  1, 23,  5)  (  1,  8,  5)  (  1, 28,  7)  (  1, 30,  3)  (  1,  9,  4)
  0 -0.3302E-02  0  0.1281E-02  0  0.6334E-03  0  0.3205E-03  0  0.1361E-03
   (  1, 27,  7)  (  1, 17,  9)  (  1,  7,  9)  (  1, 21,  3)  (  1,  2,  1)
  0  0.5427E-04  0 -0.4081E-04  0  0.2711E-04  0 -0.7835E-05  1   1.554    
   (  1, 22,  8)  (  1, 13,  2)  (  1,  9,  4)  (  1, 36,  8)  (  1,  8,  5)
  0 -0.8541      0 -0.9125      0 -0.2473      0 -0.1991      0 -0.6186E-01
   (  1,  8,  5)  (  1,  9,  4)  (  1,  3,  7)  (  1, 33,  2)  (  1, 30,  5)
  0 -0.2045E-01  0 -0.1427E-01  0 -0.5538E-02  0 -0.4050E-02  0 -0.1578E-02
   (  1, 37,  5)  (  1, 27,  4)  (  1, 23,  5)  (  1, 29,  3)  (  1, 26,  7)
  0  0.1768E-02  0 -0.9303E-03  0  0.2219E-03  0  0.1180E-03  0  0.7098E-04
   (  1,  9,  4)  (  1, 15,  3)  (  1, 20,  9)  (  1, 20,  3)  (  1,  4,  5)
  0  0.2137E-04  0 -0.1467E-04  0 -0.9518E-05  1 -0.6328      0  0.7818    
   (  1, 17,  4)  (  1,  8,  5)  (  1,  9,  4)  (  1,  9,  4)  (  1,  9,  4)
  0 -0.1490      0 -0.1604      0 -0.7048E-01  0 -0.2451E-01  0 -0.1579E-01
   (  1, 27,  9)  (  1,  8,  5)  (  1, 32,  1)  (  1, 20,  3)  (  1, 31,  5)
  0 -0.4752E-02  0 -0.2623E-02  0 -0.1046E-02  0  0.9361E-03  0 -0.6734E-03
   (  1, 37,  5)  (  1, 29,  7)  (  1, 34,  6)  (  1, 11,  1)  (  1,  9,  4)
  0 -0.3375E-03  0  0.8457E-04  0 -0.3574E-04  0  0.3154E-04  0 -0.9682E-05
   (  1, 17,  4)  (  1, 12,  2)  (  1,  6,  8)  (  1,  4,  5)  (  1,  5,  5)
  1  -1.221      0  0.3113      0 -0.1586      0 -0.1958      0 -0.4295E-01
   (  1,  2, 15)  (  1,  9,  4)  (  1,  3, 10)  (  1,  8,  5)  (  1, 32,  1)
  0 -0.1785E-01  0 -0.9176E-02  0  0.5014E-02  0 -0.1790E-02  0  0.1186E-02
   (  1, 20,  2)  (  1, 31,  6)  (  1, 29,  4)  (  1, 31,  9)  (  1, 28,  7)
  0 -0.9069E-03  0  0.8984E-03  0 -0.2775E-03  0 -0.1437E-03  0  0.7662E-04
   (  1,  9,  2)  (  1,  9,  4)  (  1, 33,  2)  (  1,  4,  6)  (  1, 15,  2)
  0 -0.3058E-04  0  0.1276E-04  0  0.4996E-05  1 -0.4421      0 -0.9604E-01
   (  1, 17,  4)  (  1, 16,  3)  (  1,  9,  4)  (  1,  2, 15)  (  1,  9,  4)
  0  0.5094E-01  0  0.1959E-01  0 -0.1469E-01  0 -0.6123E-02  0  0.2991E-02
   (  1,  9,  4)  (  1,  8,  5)  (  1,  5,  1)  (  1, 31,  6)  (  1, 29,  3)
  0 -0.1804E-02  0  0.7759E-03  0 -0.3638E-03  0  0.2114E-03  0  0.2304E-03
   (  1,  8,  4)  (  1, 25,  3)  (  1, 25,  4)  (  1,  8,  5)  (  1,  9,  4)
  0 -0.7480E-04  0 -0.3112E-04  0  0.2478E-04  0 -0.7752E-05  1 -0.1582    
   (  1, 15,  2)  (  1,  4,  6)  (  1,  6,  7)  (  1,  5,  5)  (  1,  2, 15)
  0  0.2636E-01  0 -0.1919E-01  0 -0.1141E-01  0 -0.4537E-02  0 -0.2310E-02
   (  1,  9,  4)  (  1,  9,  4)  (  1,  5,  2)  (  1, 33,  2)  (  1, 19,  1)
  0  0.8351E-03  0  0.6267E-03  0 -0.4267E-03  0  0.1439E-03  0  0.8536E-04
   (  1, 30,  4)  (  1, 18,  2)  (  1,  8,  5)  (  1,  8,  5)  (  1,  9,  4)
  0 -0.8475E-04  0 -0.2815E-04  0 -0.1232E-04  0  0.9016E-05  1 -0.5669E-01
   (  1,  9,  4)  (  1, 29,  9)  (  1,  3,  1)  (  1, 14,  2)  (  1,  2, 15)
  0  0.1063E-01  0  0.7025E-02  0 -0.7288E-02  0 -0.2051E-02  0 -0.1006E-02
   (  1,  9,  4)  (  1,  8,  5)  (  1,  8,  5)  (  1,  4,  7)  (  1, 18,  1)
  0 -0.2805E-03  0  0.2480E-03  0 -0.9703E-04  0  0.4380E-04  0 -0.5004E-04
   (  1, 27,  3)  (  1, 31,  6)  (  1,  4, 13)  (  1, 28,  7)  (  1,  9,  4)
  0  0.2839E-04  0 -0.1131E-04  0 -0.6117E-05  1 -0.2049E-01  0  0.4841E-02
   (  1,  9,  4)  (  1, 31,  3)  (  1, 16,  2)  (  1,  2, 15)  (  1,  9,  4)
  0  0.2766E-02  0 -0.2629E-02  0 -0.9650E-03  0 -0.3307E-03  0 -0.1607E-03
   (  1,  8,  5)  (  1,  8,  5)  (  1,  4,  7)  (  1, 18,  1)  (  1, 29,  4)
  0  0.7715E-04  0 -0.4081E-04  0  0.2146E-04  0 -0.1382E-04  0  0.1364E-04
   (  1, 30,  6)  (  1,  1, 20)  (  1, 25,  3)  (  1,  9,  4)  (  1,  9,  4)
  0  0.3960E-05  1 -0.7442E-02  0  0.1540E-02  0  0.9538E-03  0 -0.1021E-02
   (  1, 13, 10)  (  1,  2, 15)  (  1,  8,  5)  (  1,  9,  4)  (  1,  9,  4)
  0 -0.3836E-03  0 -0.1052E-03  0 -0.6317E-04  0  0.2837E-04  0 -0.1492E-04
   (  1,  4,  7)  (  1, 18,  1)  (  1, 29,  4)  (  1,  3,  9)  (  1,  1, 20)
  0  0.8580E-05  1 -0.2703E-02  0  0.3109E-03  0  0.6026E-03  0 -0.2979E-03
   (  1, 25,  3)  (  1,  2, 15)  (  1,  8,  5)  (  1,  9,  4)  (  1,  8,  4)
  0 -0.1340E-03  0 -0.3986E-04  0 -0.2261E-04  0  0.9559E-05  1 -0.9823E-03
   (  1,  4,  7)  (  1,  4, 11)  (  1, 28,  4)  (  1, 30,  6)  (  1,  2, 15)
  0 -0.1285E-03  0  0.1968E-03  0 -0.1068E-03  0 -0.4388E-04  0 -0.1357E-04
   (  1,  9,  4)  (  1,  9,  4)  (  1,  8,  4)  (  1,  4,  8)  (  1,  4, 11)
  0  0.5937E-05  1 -0.3576E-03  0 -0.5067E-04  0  0.6285E-04  0 -0.2864E-04
   (  1,  8,  5)  (  1,  2, 15)  (  1,  9,  4)  (  1,  9,  4)  (  1,  3, 14)
  0 -0.1862E-04  0 -0.5738E-05  1 -0.1309E-03  0 -0.1818E-04  0  0.2234E-04
   (  1,  4,  8)  (  1,  4, 11)  (  1,  2, 15)  (  1,  9,  4)  (  1,  9,  4)
  0 -0.1276E-04  0 -0.4824E-05  1 -0.4614E-04  0 -0.6718E-05  1  0.8962E-05
   (  1,  3, 14)  (  1,  4,  7)  (  1,  2, 15)  (  1,  9,  4)  (  1,  9,  4)

 MAXIMUM RESIDUAL FOR EACH ITERATION (1 INDICATES THE FIRST INNER ITERATION):

    RESIDUAL       RESIDUAL       RESIDUAL       RESIDUAL       RESIDUAL    
   LAYER,ROW,COL  LAYER,ROW,COL  LAYER,ROW,COL  LAYER,ROW,COL  LAYER,ROW,COL
 ---------------------------------------------------------------------------
  1  -3894.      0  -3105.      0  -1352.      0  -632.0      0  -486.5    
   (  1, 39, 12)  (  1, 39, 13)  (  1, 39,  9)  (  1, 39, 15)  (  1, 39, 15)
  0  -358.7      0  -255.2      0  -155.3      0  -83.60      0  -47.22    
   (  1, 39, 15)  (  1, 39, 15)  (  1, 39, 15)  (  1, 39, 15)  (  1, 39, 15)
  0  -24.25      0  -11.87      0  -9.031      0  -3.245      0  -1.083    
   (  1, 39, 15)  (  1, 39, 15)  (  1, 39, 15)  (  1, 39, 15)  (  1, 39, 15)
  0 -0.3663      0 -0.1152      0 -0.4302E-01  0 -0.2138E-01  0 -0.1532E-01
   (  1, 39, 15)  (  1, 39, 15)  (  1, 38, 15)  (  1, 38, 15)  (  1, 38, 15)
  0 -0.9369E-02  0 -0.4189E-02  0 -0.1769E-02  1  -783.8      0  -701.9    
   (  1, 38, 15)  (  1, 38, 15)  (  1, 38, 15)  (  1, 39, 12)  (  1, 39, 12)
  0  -346.4      0  -138.3      0  -107.9      0  -79.82      0  -56.53    
   (  1, 39, 14)  (  1, 39, 15)  (  1, 39, 15)  (  1, 39, 15)  (  1, 39, 15)
  0  -35.13      0  -21.96      0  -12.80      0  -8.035      0  -5.880    
   (  1, 39, 15)  (  1, 39, 15)  (  1, 39, 15)  (  1, 39, 15)  (  1, 39, 15)
  0  -2.487      0  -1.037      0 -0.4186      0 -0.1581      0 -0.4949E-01
   (  1, 39, 15)  (  1, 39, 15)  (  1, 39, 15)  (  1, 39, 15)  (  1, 39, 15)
  0 -0.1584E-01  0 -0.1186E-01  0 -0.5336E-02  0 -0.2263E-02  1   381.8    
   (  1, 39, 15)  (  1, 39, 15)  (  1, 38, 15)  (  1, 38, 15)  (  1, 38, 15)
  0  -148.7      0  -101.8      0  -38.95      0  -23.38      0  -18.14    
   (  1, 39, 12)  (  1, 39, 12)  (  1, 39, 14)  (  1, 39, 15)  (  1, 39, 15)
  0  -12.89      0  -7.854      0  -4.974      0  -3.460      0  -2.923    
   (  1, 39, 15)  (  1, 39, 15)  (  1, 39, 15)  (  1, 39, 15)  (  1, 39, 15)
  0  -1.540      0 -0.7901      0 -0.3941      0 -0.1769      0 -0.7154E-01
   (  1, 39, 15)  (  1, 39, 15)  (  1, 39, 15)  (  1, 39, 15)  (  1, 39, 15)
  0 -0.2467E-01  0 -0.1243E-01  0 -0.9105E-02  0 -0.3420E-02  1   57.22    
   (  1, 39, 15)  (  1, 39, 15)  (  1, 39, 15)  (  1, 39, 15)  (  1, 38, 15)
  0   35.54      0  -24.27      0  -11.85      0  -5.824      0  -4.318    
   (  1, 38, 15)  (  1, 34, 12)  (  1, 39, 14)  (  1, 39, 15)  (  1, 39, 15)
  0  -3.220      0  -2.135      0  -1.402      0 -0.9173      0 -0.6094    
   (  1, 39, 15)  (  1, 39, 15)  (  1, 39, 15)  (  1, 39, 15)  (  1, 39, 15)
  0 -0.4837      0 -0.2613      0 -0.1328      0 -0.6830E-01  0 -0.3228E-01
   (  1, 39, 15)  (  1, 39, 15)  (  1, 39, 15)  (  1, 39, 15)  (  1, 39, 15)
  0 -0.1374E-01  0 -0.6598E-02  0 -0.5589E-02  1   53.82      0   19.36    
   (  1, 39, 15)  (  1, 39, 15)  (  1, 39, 15)  (  1, 38, 15)  (  1, 38, 15)
  0  -9.751      0  -3.540      0  -1.628      0  -1.242      0 -0.9178    
   (  1, 34, 12)  (  1, 20, 14)  (  1, 39, 14)  (  1, 39, 15)  (  1, 39, 15)
  0 -0.6090      0 -0.4114      0 -0.2726      0 -0.1998      0 -0.1431    
   (  1, 39, 15)  (  1, 39, 15)  (  1, 39, 15)  (  1, 39, 15)  (  1, 39, 15)
  0 -0.7737E-01  0 -0.3849E-01  0 -0.2101E-01  0 -0.1033E-01  0 -0.4570E-02
   (  1, 39, 15)  (  1, 39, 15)  (  1, 39, 15)  (  1, 39, 15)  (  1, 39, 15)
  1   66.20      0   56.90      0   27.17      0   13.08      0   6.345    
   (  1, 37, 15)  (  1,  1, 15)  (  1,  1, 15)  (  1,  3, 14)  (  1,  3, 15)
  0   3.062      0  -1.731      0  0.9816      0  0.4599      0  0.2124    
   (  1,  3, 15)  (  1,  3, 13)  (  1,  4, 13)  (  1,  4, 13)  (  1,  4, 13)
  0 -0.1195      0 -0.8516E-01  0  0.4674E-01  0  0.2000E-01  0  0.7273E-02
   (  1,  4, 12)  (  1,  4, 12)  (  1,  5, 12)  (  1,  5, 12)  (  1,  5, 12)
  0 -0.2998E-02  0  0.1577E-02  0  0.7561E-03  1   19.81      0   10.50    
   (  1,  5, 11)  (  1,  6, 11)  (  1,  6, 11)  (  1, 37, 15)  (  1,  3, 14)
  0   7.572      0   3.874      0   1.963      0  0.8954      0  0.5533    
   (  1,  3, 14)  (  1,  3, 14)  (  1,  3, 15)  (  1,  3, 15)  (  1,  4, 13)
  0  0.3324      0  0.1331      0 -0.5522E-01  0 -0.3383E-01  0  0.3005E-01
   (  1,  4, 13)  (  1,  4, 13)  (  1,  4, 12)  (  1,  4, 12)  (  1,  5, 12)
  0  0.1437E-01  0  0.6465E-02  0 -0.1895E-02  0  0.1077E-02  1   6.572    
   (  1,  5, 12)  (  1,  5, 12)  (  1,  5, 11)  (  1,  6, 11)  (  1, 37, 15)
  0   5.404      0   2.953      0   1.374      0  0.6643      0  0.3045    
   (  1,  3, 14)  (  1,  3, 14)  (  1,  3, 14)  (  1,  3, 15)  (  1,  3, 15)
  0  0.1986      0  0.1236      0  0.4856E-01  0 -0.1757E-01  0 -0.1404E-01
   (  1,  4, 13)  (  1,  4, 13)  (  1,  4, 13)  (  1,  4, 12)  (  1,  4, 12)
  0  0.1012E-01  0  0.6156E-02  0  0.2713E-02  0  0.9000E-03  1   2.436    
   (  1,  5, 12)  (  1,  5, 12)  (  1,  5, 12)  (  1,  5, 12)  (  1,  3, 14)
  0   2.249      0   1.377      0  0.6474      0  0.2519      0  0.1174    
   (  1,  3, 14)  (  1,  3, 14)  (  1,  3, 14)  (  1,  3, 14)  (  1,  4, 13)
  0  0.8576E-01  0  0.5187E-01  0  0.1959E-01  0  0.8927E-02  0 -0.6931E-02
   (  1,  4, 13)  (  1,  4, 13)  (  1,  4, 13)  (  1,  4, 13)  (  1,  4, 12)
  0  0.4035E-02  0  0.2548E-02  0  0.1170E-02  1  0.9295      0  0.8061    
   (  1,  5, 12)  (  1,  5, 12)  (  1,  5, 12)  (  1,  3, 14)  (  1,  3, 14)
  0  0.5790      0  0.2644      0  0.1002      0  0.4580E-01  0  0.3549E-01
   (  1,  3, 14)  (  1,  3, 14)  (  1,  3, 14)  (  1,  4, 13)  (  1,  4, 13)
  0  0.2088E-01  0  0.8162E-02  0  0.3632E-02  0 -0.2128E-02  0 -0.1612E-02
   (  1,  4, 13)  (  1,  4, 13)  (  1,  4, 13)  (  1,  4, 12)  (  1,  4, 12)
  0  0.9334E-03  1  0.3532      0  0.2642      0  0.2143      0  0.1025    
   (  1,  5, 12)  (  1,  3, 14)  (  1,  3, 14)  (  1,  3, 14)  (  1,  3, 14)
  0  0.3792E-01  0  0.1760E-01  0  0.1350E-01  0  0.7953E-02  0  0.3246E-02
   (  1,  3, 14)  (  1,  4, 13)  (  1,  4, 13)  (  1,  4, 13)  (  1,  4, 13)
  0  0.1357E-02  1  0.1333      0  0.1216      0  0.8068E-01  0  0.3728E-01
   (  1,  4, 13)  (  1,  3, 14)  (  1,  3, 14)  (  1,  3, 14)  (  1,  3, 14)
  0  0.1399E-01  0  0.6710E-02  0  0.4918E-02  0  0.2930E-02  1  0.5031E-01
   (  1,  3, 14)  (  1,  4, 13)  (  1,  4, 13)  (  1,  4, 13)  (  1,  3, 14)
  0  0.4756E-01  0  0.2869E-01  0  0.1219E-01  0  0.4618E-02  0  0.2446E-02
   (  1,  3, 14)  (  1,  3, 14)  (  1,  3, 14)  (  1,  3, 14)  (  1,  4, 13)
  0  0.1560E-02  1  0.1889E-01  0  0.1795E-01  0  0.1130E-01  0  0.5599E-02
   (  1,  4, 13)  (  1,  3, 14)  (  1,  3, 14)  (  1,  3, 14)  (  1,  3, 14)
  0  0.1714E-02  0  0.9027E-03  1  0.7109E-02  0  0.6686E-02  0  0.4300E-02
   (  1,  3, 14)  (  1,  4, 13)  (  1,  3, 14)  (  1,  3, 14)  (  1,  3, 14)
  0  0.1712E-02  0  0.7260E-03  1  0.2717E-02  0  0.2439E-02  1  0.5147E-02
   (  1,  3, 14)  (  1,  3, 14)  (  1,  3, 14)  (  1,  3, 14)  (  1,  2, 15)



 OUTPUT CONTROL FOR STRESS PERIOD    1   TIME STEP    1
    SAVE HEAD FOR ALL LAYERS
    SAVE BUDGET
 UBDSV2 SAVING "   CONSTANT HEAD" ON UNIT  53 AT TIME STEP  1, STRESS PERIOD   1
 UBDSV1 SAVING "FLOW RIGHT FACE " ON UNIT  53 AT TIME STEP  1, STRESS PERIOD   1
 UBDSV1 SAVING "FLOW FRONT FACE " ON UNIT  53 AT TIME STEP  1, STRESS PERIOD   1

 HEAD WILL BE SAVED ON UNIT   51 AT END OF TIME STEP    1, STRESS PERIOD    1
1
  VOLUMETRIC BUDGET FOR ENTIRE MODEL AT END OF TIME STEP    1, STRESS PERIOD   1
  ------------------------------------------------------------------------------

     CUMULATIVE VOLUMES      L**3       RATES FOR THIS TIME STEP      L**3/T
     ------------------                 ------------------------

           IN:                                      IN:
           ---                                      ---
             STORAGE =           0.0000               STORAGE =           0.0000
       CONSTANT HEAD =           0.0000         CONSTANT HEAD =           0.0000
               WELLS =           0.0000                 WELLS =           0.0000
       RIVER LEAKAGE =         456.5790         RIVER LEAKAGE =         456.5790
            RECHARGE =        6003.9658              RECHARGE =        6003.9658

            TOTAL IN =        6460.5449              TOTAL IN =        6460.5449

          OUT:                                     OUT:
          ----                                     ----
             STORAGE =           0.0000               STORAGE =           0.0000
       CONSTANT HEAD =         309.1788         CONSTANT HEAD =         309.1788
               WELLS =        1874.3583                 WELLS =        1874.3583
       RIVER LEAKAGE =        4277.1172         RIVER LEAKAGE =        4277.1172
            RECHARGE =           0.0000              RECHARGE =           0.0000

           TOTAL OUT =        6460.6543             TOTAL OUT =        6460.6543

            IN - OUT =          -0.1094              IN - OUT =          -0.1094

 PERCENT DISCREPANCY =          -0.00     PERCENT DISCREPANCY =          -0.00






         TIME SUMMARY AT END OF TIME STEP    1 IN STRESS PERIOD    1
                    SECONDS     MINUTES      HOURS       DAYS        YEARS
                    -----------------------------------------------------------
   TIME STEP LENGTH  86400.      1440.0      24.000      1.0000     2.73785E-03
 STRESS PERIOD TIME  86400.      1440.0      24.000      1.0000     2.73785E-03
         TOTAL TIME  86400.      1440.0      24.000      1.0000     2.73785E-03
1
 A TOTAL OF  17 HYDROGRAPH POINTS HAVE BEEN PREPARED.
1
                            STRESS PERIOD NO.    2, LENGTH =   1825.000    
                            -----------------------------------------------

                              NUMBER OF TIME STEPS =     1

                               MULTIPLIER FOR DELT =     1.000

                            INITIAL TIME STEP SIZE =   1825.000    

 WELL NO.  LAYER   ROW   COL   STRESS RATE         
 --------------------------------------------------
      1      1      9     16      -841.8    
      2      1     11     13      -456.2    
      3      1     20     14      -363.5    
      4      1     26     10      -96.74    
      5      1     29      6      -66.48    
      6      1     34     12      -493.4    

      6 WELLS

 REACH NO.  LAYER   ROW   COL     STAGE      CONDUCTANCE     BOTTOM EL.         
 -------------------------------------------------------------------------------
      1      1      1     15       20.29           6513.           20.00    
      2      1      2     15       19.81           4438.           19.75    
      3      1      3     15       20.10           6156.           19.50    
      4      1      4     15       19.37           5410.           19.25    
      5      1      5     15       19.21           6028.           19.00    
      6      1      6     15       18.97           5313.           18.75    
      7      1      7     15       18.81           3846.           18.50    
      8      1      8     15       18.43           5831.           18.25    
      9      1      9     15       18.58           4497.           18.00    
     10      1     10     15       19.07           4282.           17.75    
     11      1     11     15       17.64           5710.           17.50    
     12      1     12     15       17.46           3483.           17.25    
     13      1     13     15       17.53           4368.           17.00    
     14      1     14     15       17.35           4593.           16.75    
     15      1     15     15       16.87           5063.           16.50    
     16      1     16     15       16.89           2612.           16.25    
     17      1     17     15       16.31           4018.           16.00    
     18      1     18     15       16.11           5095.           15.75    
     19      1     19     15       16.09           5867.           15.50    
     20      1     20     15       15.61           2969.           15.25    
     21      1     21     15       15.30           2970.           15.00    
     22      1     22     15       15.28           4680.           14.75    
     23      1     23     15       15.05           4085.           14.50    
     24      1     24     15       15.21           4238.           14.25    
     25      1     25     15       14.74           5667.           14.00    
     26      1     26     15       14.44           4505.           13.75    
     27      1     27     15       14.35           4536.           13.50    
     28      1     28     15       13.63           4374.           13.25    
     29      1     29     15       13.78           5304.           13.00    
     30      1     30     15       13.71           4737.           12.75    
     31      1     31     15       13.39           4671.           12.50    
     32      1     32     15       12.99           4225.           12.25    
     33      1     33     15       12.89           3323.           12.00    
     34      1     34     15       12.53           3788.           11.75    
     35      1     35     15       12.32           3981.           11.50    
     36      1     36     15       12.11           6059.           11.25    
     37      1     37     15       11.89           5024.           11.00    
     38      1     38     15       11.64           4588.           10.75    
     39      1     39     15       11.37           3807.           10.50    
     40      1     40     15       11.57           3644.           10.25    

     40 RIVER REACHES

                 RECHARGE =  9.358508E-05

 SOLVING FOR HEAD 


    14 CALLS TO PCG ROUTINE FOR TIME STEP   1 IN STRESS PERIOD    2
    68 TOTAL ITERATIONS

 MAXIMUM HEAD CHANGE FOR EACH ITERATION (1 INDICATES THE FIRST INNER ITERATION):

    HEAD CHANGE    HEAD CHANGE    HEAD CHANGE    HEAD CHANGE    HEAD CHANGE 
   LAYER,ROW,COL  LAYER,ROW,COL  LAYER,ROW,COL  LAYER,ROW,COL  LAYER,ROW,COL
 ---------------------------------------------------------------------------
  1   2.864      0 -0.2687      0 -0.6737E-01  0 -0.9597E-02  0  0.2427E-02
   (  1,  2, 15)  (  1,  2, 14)  (  1,  1, 20)  (  1,  3,  8)  (  1,  1, 20)
  0 -0.4627E-03  0  0.2504E-03  0 -0.5659E-04  0 -0.1322E-04  0 -0.3048E-05
   (  1,  9,  4)  (  1,  9,  4)  (  1,  9,  4)  (  1,  8,  5)  (  1,  1, 20)
  1 -0.4635      0  0.8427E-01  0 -0.1171E-01  0 -0.2079E-02  0  0.4526E-03
   (  1,  2, 15)  (  1, 11, 13)  (  1,  3, 14)  (  1,  4, 12)  (  1,  8,  5)
  0 -0.1949E-03  0 -0.6506E-04  0 -0.9618E-05  1 -0.1389      0  0.2972E-01
   (  1,  8,  5)  (  1,  9,  4)  (  1,  8,  5)  (  1,  2, 15)  (  1, 11, 13)
  0  0.3555E-02  0 -0.6425E-03  0 -0.2068E-03  0  0.7532E-04  0 -0.1924E-04
   (  1, 12, 10)  (  1,  4, 12)  (  1,  9,  4)  (  1,  9,  4)  (  1,  9,  4)
  0 -0.2933E-05  1 -0.5405E-01  0  0.1038E-01  0  0.1186E-02  0  0.2431E-03
   (  1,  5, 12)  (  1,  9, 16)  (  1, 11, 13)  (  1, 12, 10)  (  1,  9, 16)
  0 -0.8145E-04  0  0.2634E-04  0 -0.6060E-05  1 -0.2266E-01  0  0.3579E-02
   (  1,  9,  4)  (  1,  9,  4)  (  1,  9,  4)  (  1,  9, 16)  (  1, 11, 13)
  0  0.4018E-03  0  0.1030E-03  0 -0.2923E-04  0  0.9272E-05  1 -0.9445E-02
   (  1, 12, 10)  (  1,  9, 16)  (  1,  9,  4)  (  1,  9,  4)  (  1,  9, 16)
  0  0.1214E-02  0 -0.1692E-03  0  0.4046E-04  0 -0.1041E-04  0  0.3337E-05
   (  1, 11, 13)  (  1,  8, 17)  (  1,  9, 16)  (  1,  9,  4)  (  1,  9,  4)
  1 -0.3918E-02  0  0.4065E-03  0 -0.7257E-04  0  0.1466E-04  0 -0.3581E-05
   (  1,  9, 16)  (  1, 11, 13)  (  1,  8, 17)  (  1,  9, 16)  (  1,  9,  4)
  1 -0.1621E-02  0  0.1410E-03  0 -0.3060E-04  0  0.4887E-05  1 -0.6716E-03
   (  1,  9, 16)  (  1, 34, 12)  (  1,  8, 17)  (  1,  9, 16)  (  1,  9, 16)
  0  0.5036E-04  0 -0.1258E-04  0 -0.1606E-05  1 -0.2795E-03  0 -0.2082E-04
   (  1, 34, 12)  (  1,  8, 17)  (  1,  6, 20)  (  1,  9, 16)  (  1,  8, 17)
  0 -0.5053E-05  1 -0.1163E-03  0 -0.9114E-05  1 -0.4840E-04  0 -0.3509E-05
   (  1,  8, 17)  (  1,  9, 16)  (  1,  8, 17)  (  1,  9, 16)  (  1,  8, 17)
  1 -0.2001E-04  0 -0.1312E-05  1 -0.8252E-05
   (  1,  9, 16)  (  1,  8, 17)  (  1,  9, 16)

 MAXIMUM RESIDUAL FOR EACH ITERATION (1 INDICATES THE FIRST INNER ITERATION):

    RESIDUAL       RESIDUAL       RESIDUAL       RESIDUAL       RESIDUAL    
   LAYER,ROW,COL  LAYER,ROW,COL  LAYER,ROW,COL  LAYER,ROW,COL  LAYER,ROW,COL
 ---------------------------------------------------------------------------
  1   145.3      0   20.43      0   3.756      0 -0.8843      0  0.1961    
   (  1, 11, 15)  (  1, 11, 15)  (  1,  3, 13)  (  1,  4, 13)  (  1,  4, 12)
  0 -0.5752E-01  0 -0.1566E-01  0  0.3901E-02  0 -0.1113E-02  0  0.1801E-03
   (  1,  5, 12)  (  1,  5, 12)  (  1,  5, 11)  (  1,  6, 11)  (  1,  6, 10)
  1   24.78      0   4.849      0  0.7653      0  0.2561      0  0.6885E-01
   (  1,  2, 15)  (  1,  3, 14)  (  1,  3, 14)  (  1,  4, 13)  (  1,  4, 13)
  0  0.1491E-01  0  0.5341E-02  0  0.1073E-02  1   9.862      0   1.458    
   (  1,  5, 12)  (  1,  5, 12)  (  1,  5, 12)  (  1,  2, 15)  (  1,  3, 14)
  0  0.2490      0  0.7783E-01  0  0.2350E-01  0  0.4662E-02  0  0.1651E-02
   (  1,  3, 14)  (  1,  4, 13)  (  1,  4, 13)  (  1,  5, 12)  (  1,  5, 12)
  0  0.3480E-03  1   4.154      0  0.5612      0  0.8816E-01  0  0.2362E-01
   (  1,  5, 12)  (  1,  2, 15)  (  1,  2, 15)  (  1,  2, 15)  (  1,  4, 13)
  0  0.7407E-02  0  0.1479E-02  0  0.5040E-03  1   1.789      0  0.2622    
   (  1,  4, 13)  (  1,  4, 13)  (  1,  5, 12)  (  1,  2, 15)  (  1,  2, 15)
  0  0.4444E-01  0  0.7766E-02  0  0.2206E-02  0  0.4535E-03  1  0.7600    
   (  1,  2, 15)  (  1,  2, 15)  (  1,  4, 13)  (  1,  4, 13)  (  1,  2, 15)
  0  0.1225      0  0.2214E-01  0  0.4025E-02  0  0.9310E-03  0  0.2103E-03
   (  1,  2, 15)  (  1,  2, 15)  (  1,  2, 15)  (  1,  2, 15)  (  1,  2, 15)
  1  0.3081      0  0.5497E-01  0  0.1047E-01  0  0.1953E-02  0  0.4603E-03
   (  1,  2, 15)  (  1,  2, 15)  (  1,  2, 15)  (  1,  2, 15)  (  1,  2, 15)
  1  0.1164      0  0.2288E-01  0  0.4540E-02  0  0.8436E-03  1  0.4068E-01
   (  1,  2, 15)  (  1,  2, 15)  (  1,  2, 15)  (  1,  2, 15)  (  1,  2, 15)
  0  0.8673E-02  0  0.1828E-02  0  0.3643E-03  1  0.1328E-01  0  0.2990E-02
   (  1,  2, 15)  (  1,  2, 15)  (  1,  2, 15)  (  1,  2, 15)  (  1,  2, 15)
  0  0.6659E-03  1  0.4183E-02  0  0.9193E-03  1  0.1326E-02  0  0.3474E-03
   (  1,  2, 15)  (  1,  2, 15)  (  1,  2, 15)  (  1,  2, 15)  (  1,  2, 15)
  1  0.4223E-03  0  0.1467E-03  1  0.1638E-03
   (  1,  2, 15)  (  1,  8, 17)  (  1,  8, 17)



 OUTPUT CONTROL FOR STRESS PERIOD    2   TIME STEP    1
    SAVE HEAD FOR ALL LAYERS
    SAVE BUDGET
 UBDSV1 SAVING "         STORAGE" ON UNIT  53 AT TIME STEP  1, STRESS PERIOD   2
 UBDSV2 SAVING "   CONSTANT HEAD" ON UNIT  53 AT TIME STEP  1, STRESS PERIOD   2
 UBDSV1 SAVING "FLOW RIGHT FACE " ON UNIT  53 AT TIME STEP  1, STRESS PERIOD   2
 UBDSV1 SAVING "FLOW FRONT FACE " ON UNIT  53 AT TIME STEP  1, STRESS PERIOD   2

 HEAD WILL BE SAVED ON UNIT   51 AT END OF TIME STEP    1, STRESS PERIOD    2
1
  VOLUMETRIC BUDGET FOR ENTIRE MODEL AT END OF TIME STEP    1, STRESS PERIOD   2
  ------------------------------------------------------------------------------

     CUMULATIVE VOLUMES      L**3       RATES FOR THIS TIME STEP      L**3/T
     ------------------                 ------------------------

           IN:                                      IN:
           ---                                      ---
             STORAGE =     2586435.5000               STORAGE =        1417.2250
       CONSTANT HEAD =         329.7219         CONSTANT HEAD =           0.1807
               WELLS =           0.0000                 WELLS =           0.0000
       RIVER LEAKAGE =      869109.1875         RIVER LEAKAGE =         475.9740
            RECHARGE =     7424815.0000              RECHARGE =        4065.1018

            TOTAL IN =    10880690.0000              TOTAL IN =        5958.4814

          OUT:                                     OUT:
          ----                                     ----
             STORAGE =      117199.0938               STORAGE =          64.2187
       CONSTANT HEAD =      443242.2812         CONSTANT HEAD =         242.7031
               WELLS =     4232474.5000                 WELLS =        2318.1370
       RIVER LEAKAGE =     6087961.5000         RIVER LEAKAGE =        3333.5259
            RECHARGE =           0.0000              RECHARGE =           0.0000

           TOTAL OUT =    10880878.0000             TOTAL OUT =        5958.5845

            IN - OUT =        -188.0000              IN - OUT =          -0.1030

 PERCENT DISCREPANCY =          -0.00     PERCENT DISCREPANCY =          -0.00






         TIME SUMMARY AT END OF TIME STEP    1 IN STRESS PERIOD    2
                    SECONDS     MINUTES      HOURS       DAYS        YEARS
                    -----------------------------------------------------------
   TIME STEP LENGTH 1.57680E+08 2.62800E+06  43800.      1825.0      4.9966    
 STRESS PERIOD TIME 1.57680E+08 2.62800E+06  43800.      1825.0      4.9966    
         TOTAL TIME 1.57766E+08 2.62944E+06  43824.      1826.0      4.9993    
1
1
                            STRESS PERIOD NO.    3, LENGTH =   1.000000    
                            -----------------------------------------------

                              NUMBER OF TIME STEPS =     1

                               MULTIPLIER FOR DELT =     1.000

                            INITIAL TIME STEP SIZE =   1.000000    

 WELL NO.  LAYER   ROW   COL   STRESS RATE         
 --------------------------------------------------
      1      1      9     16      -866.8    
      2      1     11     13      -425.7    
      3      1     20     14      -437.3    
      4      1     26     10      -83.07    
      5      1     29      6      -72.97    
      6      1     34     12      -441.3    

      6 WELLS

 REACH NO.  LAYER   ROW   COL     STAGE      CONDUCTANCE     BOTTOM EL.         
 -------------------------------------------------------------------------------
      1      1      1     15       20.42           4787.           20.00    
      2      1      2     15       19.91           4742.           19.75    
      3      1      3     15       19.99           5492.           19.50    
      4      1      4     15       19.27           1590.           19.25    
      5      1      5     15       19.50           5637.           19.00    
      6      1      6     15       18.58           4406.           18.75    
      7      1      7     15       18.81           4429.           18.50    
      8      1      8     15       18.60           4888.           18.25    
      9      1      9     15       18.71           4226.           18.00    
     10      1     10     15       18.93           4330.           17.75    
     11      1     11     15       17.91           3504.           17.50    
     12      1     12     15       17.57           3366.           17.25    
     13      1     13     15       17.23           5567.           17.00    
     14      1     14     15       17.37           3705.           16.75    
     15      1     15     15       16.84           4087.           16.50    
     16      1     16     15       16.80           4525.           16.25    
     17      1     17     15       16.32           2765.           16.00    
     18      1     18     15       16.30           4262.           15.75    
     19      1     19     15       16.15           4252.           15.50    
     20      1     20     15       16.09           5690.           15.25    
     21      1     21     15       15.51           6752.           15.00    
     22      1     22     15       15.36           4245.           14.75    
     23      1     23     15       15.26           4470.           14.50    
     24      1     24     15       15.14           3963.           14.25    
     25      1     25     15       14.67           3235.           14.00    
     26      1     26     15       14.65           3558.           13.75    
     27      1     27     15       14.23           921.2           13.50    
     28      1     28     15       13.87           3187.           13.25    
     29      1     29     15       13.77           4690.           13.00    
     30      1     30     15       13.55           3804.           12.75    
     31      1     31     15       13.21           3628.           12.50    
     32      1     32     15       13.12           4877.           12.25    
     33      1     33     15       12.89           3463.           12.00    
     34      1     34     15       12.61           4895.           11.75    
     35      1     35     15       12.35           5345.           11.50    
     36      1     36     15       12.11           4571.           11.25    
     37      1     37     15       12.03           3408.           11.00    
     38      1     38     15       11.48           5125.           10.75    
     39      1     39     15       11.74           3453.           10.50    
     40      1     40     15       11.44           5151.           10.25    

     40 RIVER REACHES

                 RECHARGE =  9.358508E-05

 SOLVING FOR HEAD 


    15 CALLS TO PCG ROUTINE FOR TIME STEP   1 IN STRESS PERIOD    3
   153 TOTAL ITERATIONS

 MAXIMUM HEAD CHANGE FOR EACH ITERATION (1 INDICATES THE FIRST INNER ITERATION):

    HEAD CHANGE    HEAD CHANGE    HEAD CHANGE    HEAD CHANGE    HEAD CHANGE 
   LAYER,ROW,COL  LAYER,ROW,COL  LAYER,ROW,COL  LAYER,ROW,COL  LAYER,ROW,COL
 ---------------------------------------------------------------------------
  1  -3.096      0  -2.662      0 -0.9963      0  0.3687      0  0.3747    
   (  1,  9,  4)  (  1,  8,  5)  (  1, 32,  1)  (  1, 35,  8)  (  1, 33,  2)
  0  0.1292      0  0.4542E-01  0  0.2875E-01  0  0.1192E-01  0  0.5497E-02
   (  1, 29,  4)  (  1, 17,  4)  (  1,  1,  7)  (  1, 32,  1)  (  1, 11,  2)
  0 -0.6129E-02  0  0.3160E-02  0  0.8805E-03  0  0.4972E-03  0  0.2296E-03
   (  1,  9,  4)  (  1, 31,  3)  (  1, 27,  5)  (  1,  2,  9)  (  1,  3,  5)
  0  0.9619E-04  0  0.4333E-04  0  0.3435E-04  0 -0.1755E-04  0  0.5596E-05
   (  1, 24, 10)  (  1, 30,  1)  (  1,  9,  4)  (  1, 14,  3)  (  1,  3, 12)
  1  -1.259      0 -0.8321      0 -0.3470      0  0.1344      0  0.6123E-01
   (  1,  6, 15)  (  1,  9,  4)  (  1,  8,  5)  (  1,  8,  5)  (  1, 32,  1)
  0  0.3088E-01  0  0.1825E-01  0  0.8149E-02  0  0.7763E-02  0 -0.1868E-02
   (  1, 20,  3)  (  1, 31,  5)  (  1, 33,  2)  (  1,  8,  5)  (  1,  5,  1)
  0 -0.1784E-02  0  0.1519E-02  0 -0.5063E-03  0  0.2798E-03  0 -0.9702E-04
   (  1,  9,  4)  (  1,  9,  4)  (  1,  2,  3)  (  1,  5,  7)  (  1,  9, 12)
  0  0.5011E-04  0 -0.2556E-04  0 -0.6879E-05  1  0.4964      0 -0.3021    
   (  1, 14,  2)  (  1, 16,  3)  (  1,  9,  4)  (  1,  9,  4)  (  1,  9,  4)
  0 -0.2069      0 -0.4932E-01  0  0.2968E-01  0  0.1077E-01  0 -0.6188E-02
   (  1,  8,  5)  (  1,  7, 13)  (  1,  4,  5)  (  1,  6, 11)  (  1,  8, 10)
  0 -0.2605E-02  0  0.1675E-02  0  0.8778E-03  0 -0.5935E-03  0  0.6375E-03
   (  1,  8,  5)  (  1, 29,  8)  (  1,  2,  8)  (  1,  9,  4)  (  1,  9,  4)
  0 -0.1391E-03  0  0.6798E-04  0 -0.3168E-04  0 -0.2275E-04  0 -0.6929E-05
   (  1,  6,  6)  (  1,  9,  8)  (  1, 20,  3)  (  1, 33,  2)  (  1, 16,  3)
  1 -0.2062      0 -0.8836E-01  0 -0.4127E-01  0 -0.1893E-01  0  0.9895E-02
   (  1,  6, 15)  (  1,  9,  4)  (  1,  8,  5)  (  1,  7, 13)  (  1,  4,  6)
  0  0.3542E-02  0 -0.2121E-02  0 -0.8583E-03  0  0.6513E-03  0  0.2923E-03
   (  1, 20,  3)  (  1,  8, 11)  (  1,  8,  5)  (  1,  8,  5)  (  1,  2,  8)
  0 -0.1978E-03  0  0.2251E-03  0 -0.4506E-04  0  0.3772E-04  0 -0.1657E-04
   (  1,  9,  4)  (  1,  9,  4)  (  1,  6,  6)  (  1, 16,  2)  (  1, 13,  1)
  0 -0.7923E-05  1 -0.7514E-01  0  0.3270E-01  0 -0.1351E-01  0 -0.5656E-02
   (  1, 33,  2)  (  1,  6, 15)  (  1,  9,  4)  (  1,  9,  4)  (  1,  7, 14)
  0 -0.2894E-02  0  0.1519E-02  0  0.6006E-03  0 -0.3157E-03  0  0.1845E-03
   (  1,  7, 14)  (  1, 20,  4)  (  1, 30,  4)  (  1,  8, 13)  (  1,  3,  8)
  0  0.2125E-03  0 -0.7783E-04  0 -0.7848E-04  0  0.2412E-04  0  0.1105E-04
   (  1,  9,  4)  (  1,  9,  4)  (  1,  8,  5)  (  1,  5,  2)  (  1, 15,  2)
  0 -0.6509E-05  1 -0.2708E-01  0  0.1557E-01  0  0.3240E-02  0 -0.4152E-02
   (  1, 14,  2)  (  1,  6, 15)  (  1,  9,  4)  (  1,  8,  5)  (  1,  8,  5)
  0  0.1691E-02  0  0.4717E-03  0 -0.2816E-03  0 -0.1552E-03  0  0.5243E-04
   (  1,  8,  4)  (  1, 30,  7)  (  1, 25,  3)  (  1, 19,  4)  (  1, 28,  9)
  0  0.8455E-04  0 -0.3928E-04  0 -0.1677E-04  0  0.7825E-05  1 -0.1109E-01
   (  1,  9,  4)  (  1,  9,  4)  (  1, 17,  4)  (  1, 13,  1)  (  1,  6, 15)
  0  0.5478E-02  0  0.1906E-02  0 -0.1689E-02  0 -0.4739E-03  0  0.2055E-03
   (  1,  9,  4)  (  1,  8,  5)  (  1,  8,  5)  (  1,  7, 14)  (  1, 30,  7)
  0 -0.1138E-03  0 -0.6044E-04  0  0.2303E-04  0  0.1871E-04  0  0.1178E-04
   (  1, 25,  2)  (  1, 18,  4)  (  1, 27,  7)  (  1,  8,  7)  (  1,  9,  4)
  0 -0.1130E-04  0  0.3306E-05  1 -0.4668E-02  0  0.1624E-02  0  0.7782E-03
   (  1, 12,  3)  (  1,  5,  7)  (  1,  6, 15)  (  1,  9,  4)  (  1,  8,  5)
  0 -0.6552E-03  0 -0.1671E-03  0  0.7534E-04  0 -0.4174E-04  0 -0.2846E-04
   (  1,  8,  5)  (  1,  7, 14)  (  1, 30,  7)  (  1, 25,  2)  (  1,  4,  5)
  0  0.9182E-05  1 -0.1896E-02  0  0.4720E-03  0  0.2635E-03  0 -0.2553E-03
   (  1, 27,  7)  (  1,  6, 15)  (  1,  9,  4)  (  1,  8,  5)  (  1,  8,  5)
  0 -0.6231E-04  0  0.2694E-04  0 -0.1497E-04  0 -0.1101E-04  0  0.3340E-05
   (  1,  7, 14)  (  1, 30,  7)  (  1, 25,  3)  (  1,  4,  5)  (  1, 26,  6)
  1 -0.7455E-03  0  0.1144E-03  0  0.7880E-04  0 -0.1176E-03  0  0.2483E-04
   (  1,  6, 15)  (  1,  8,  5)  (  1,  9,  4)  (  1,  9,  4)  (  1,  8,  5)
  0  0.1056E-04  0 -0.5500E-05  1 -0.2888E-03  0 -0.3852E-04  0  0.5320E-04
   (  1,  5,  7)  (  1, 25,  3)  (  1,  6, 15)  (  1,  9,  4)  (  1,  9,  4)
  0 -0.3305E-04  0 -0.9089E-05  1 -0.1093E-03  0 -0.2098E-04  0  0.1871E-04
   (  1,  6,  2)  (  1,  6,  8)  (  1,  6, 15)  (  1,  9,  4)  (  1,  9,  4)
  0 -0.1231E-04  0 -0.5189E-05  1 -0.4125E-04  0  0.8076E-05  1  0.1067E-04
   (  1,  4,  2)  (  1,  7, 14)  (  1,  6, 15)  (  1,  8,  5)  (  1,  9,  4)
  0 -0.1652E-04  0  0.2989E-05  1  0.4783E-05
   (  1,  9, 16)  (  1,  8,  4)  (  1,  9,  4)

 MAXIMUM RESIDUAL FOR EACH ITERATION (1 INDICATES THE FIRST INNER ITERATION):

    RESIDUAL       RESIDUAL       RESIDUAL       RESIDUAL       RESIDUAL    
   LAYER,ROW,COL  LAYER,ROW,COL  LAYER,ROW,COL  LAYER,ROW,COL  LAYER,ROW,COL
 ---------------------------------------------------------------------------
  1  -1546.      0  -886.9      0  -367.6      0  -150.8      0  -45.02    
   (  1, 20, 15)  (  1, 20, 15)  (  1, 20, 15)  (  1, 20, 15)  (  1, 20, 15)
  0  -19.50      0  -9.131      0  -3.008      0  -1.161      0 -0.8016    
   (  1, 20, 15)  (  1, 20, 15)  (  1, 20, 15)  (  1, 20, 15)  (  1, 20, 15)
  0 -0.4841      0 -0.2142      0 -0.8512E-01  0 -0.3810E-01  0 -0.1906E-01
   (  1, 20, 15)  (  1, 20, 15)  (  1, 20, 15)  (  1, 20, 15)  (  1, 21, 15)
  0  0.1064E-01  0  0.5497E-02  0  0.4245E-02  0  0.2640E-02  0  0.1140E-02
   (  1, 39, 15)  (  1, 39, 15)  (  1, 39, 15)  (  1, 39, 15)  (  1, 39, 15)
  1  -230.2      0  -155.8      0  -101.1      0  -42.22      0  -20.23    
   (  1, 20, 15)  (  1, 20, 15)  (  1, 20, 15)  (  1, 20, 15)  (  1, 20, 15)
  0  -10.03      0  -4.757      0  -2.015      0  -1.099      0 -0.5303    
   (  1, 20, 15)  (  1, 20, 15)  (  1, 20, 15)  (  1, 20, 15)  (  1, 20, 15)
  0 -0.4157      0 -0.2175      0 -0.8520E-01  0 -0.3871E-01  0 -0.1678E-01
   (  1, 20, 15)  (  1, 20, 15)  (  1, 20, 15)  (  1, 20, 15)  (  1, 20, 15)
  0 -0.6968E-02  0 -0.3098E-02  0 -0.1272E-02  1  -87.60      0  -51.56    
   (  1, 20, 15)  (  1, 20, 15)  (  1, 20, 15)  (  1, 20, 15)  (  1, 20, 15)
  0  -31.42      0  -14.36      0  -6.758      0  -3.584      0  -1.719    
   (  1, 20, 15)  (  1, 20, 15)  (  1, 20, 15)  (  1, 20, 15)  (  1, 20, 15)
  0 -0.8292      0 -0.4417      0 -0.2062      0 -0.1258      0 -0.8150E-01
   (  1, 20, 15)  (  1, 20, 15)  (  1, 20, 15)  (  1, 20, 15)  (  1, 20, 15)
  0 -0.3114E-01  0 -0.1400E-01  0 -0.5974E-02  0 -0.2524E-02  0 -0.1005E-02
   (  1, 20, 15)  (  1, 20, 15)  (  1, 20, 15)  (  1, 20, 15)  (  1, 20, 15)
  1  -15.67      0  -11.27      0  -8.509      0   4.303      0  -1.918    
   (  1, 20, 15)  (  1, 20, 15)  (  1, 20, 15)  (  1,  7, 14)  (  1, 20, 15)
  0  -1.049      0 -0.5256      0 -0.2508      0 -0.1379      0 -0.6596E-01
   (  1, 20, 15)  (  1, 20, 15)  (  1, 20, 15)  (  1, 20, 15)  (  1, 20, 15)
  0 -0.4031E-01  0 -0.2693E-01  0 -0.1059E-01  0  0.5094E-02  0 -0.2054E-02
   (  1, 20, 15)  (  1, 20, 15)  (  1, 20, 15)  (  1,  9, 12)  (  1, 20, 15)
  0 -0.8738E-03  1  -5.236      0  -3.666      0   2.526      0   1.341    
   (  1, 20, 15)  (  1, 20, 15)  (  1, 20, 15)  (  1,  7, 14)  (  1,  7, 14)
  0  0.5167      0 -0.2705      0  0.1523      0  0.8249E-01  0  0.3577E-01
   (  1,  7, 14)  (  1, 20, 15)  (  1,  8, 13)  (  1,  8, 13)  (  1,  8, 13)
  0 -0.1932E-01  0 -0.1348E-01  0 -0.7796E-02  0  0.3697E-02  0  0.1878E-02
   (  1, 20, 15)  (  1, 20, 15)  (  1, 20, 15)  (  1,  9, 12)  (  1,  9, 12)
  0 -0.6448E-03  1   2.318      0   1.457      0   1.074      0  0.5579    
   (  1, 20, 15)  (  1,  6, 15)  (  1,  7, 14)  (  1,  7, 14)  (  1,  7, 14)
  0  0.1955      0 -0.8417E-01  0  0.6015E-01  0  0.3309E-01  0  0.1835E-01
   (  1,  7, 14)  (  1, 20, 15)  (  1,  8, 13)  (  1,  8, 13)  (  1,  8, 13)
  0  0.9801E-02  0  0.5387E-02  0  0.2432E-02  0  0.1403E-02  1  0.7432    
   (  1,  8, 13)  (  1,  8, 13)  (  1,  9, 12)  (  1,  9, 12)  (  1,  6, 15)
  0  0.5821      0  0.4500      0  0.2106      0  0.7487E-01  0  0.3209E-01
   (  1,  7, 14)  (  1,  7, 14)  (  1,  7, 14)  (  1,  7, 14)  (  1,  7, 14)
  0  0.2329E-01  0  0.1298E-01  0  0.6750E-02  0  0.2347E-02  0  0.1725E-02
   (  1,  8, 13)  (  1,  8, 13)  (  1,  8, 13)  (  1,  8, 13)  (  1,  8, 13)
  0  0.9729E-03  0  0.5728E-03  1  0.2275      0  0.2308      0  0.1776    
   (  1,  9, 12)  (  1,  9, 12)  (  1,  7, 14)  (  1,  7, 14)  (  1,  7, 14)
  0  0.7877E-01  0  0.2840E-01  0 -0.1188E-01  0  0.8963E-02  0  0.5063E-02
   (  1,  7, 14)  (  1,  7, 14)  (  1,  7, 13)  (  1,  8, 13)  (  1,  8, 13)
  0  0.2466E-02  1  0.9465E-01  0  0.8894E-01  0  0.6804E-01  0  0.2985E-01
   (  1,  8, 13)  (  1,  7, 14)  (  1,  7, 14)  (  1,  7, 14)  (  1,  7, 14)
  0  0.1079E-01  0  0.4766E-02  0  0.3485E-02  0  0.1948E-02  0  0.9924E-03
   (  1,  7, 14)  (  1,  8, 13)  (  1,  8, 13)  (  1,  8, 13)  (  1,  8, 13)
  1  0.3789E-01  0  0.2938E-01  0  0.2366E-01  0  0.1129E-01  0  0.4059E-02
   (  1,  7, 14)  (  1,  7, 14)  (  1,  7, 14)  (  1,  7, 14)  (  1,  7, 14)
  0  0.1888E-02  0  0.1354E-02  1  0.1517E-01  0  0.1368E-01  0  0.1007E-01
   (  1,  8, 13)  (  1,  8, 13)  (  1,  7, 14)  (  1,  7, 14)  (  1,  7, 14)
  0  0.4370E-02  0  0.1744E-02  1  0.5893E-02  0  0.5385E-02  0  0.4205E-02
   (  1,  7, 14)  (  1,  7, 14)  (  1,  7, 14)  (  1,  7, 14)  (  1,  7, 14)
  0  0.1980E-02  0  0.5712E-03  1  0.2345E-02  0  0.2054E-02  1  0.4539E-02
   (  1,  7, 14)  (  1,  7, 14)  (  1,  7, 14)  (  1,  7, 14)  (  1,  6, 15)
  0  0.4514E-03  0  0.3257E-03  1  0.1822E-02
   (  1,  7, 14)  (  1,  7, 14)  (  1,  9, 16)



 OUTPUT CONTROL FOR STRESS PERIOD    3   TIME STEP    1
    SAVE HEAD FOR ALL LAYERS
    SAVE BUDGET
 UBDSV2 SAVING "   CONSTANT HEAD" ON UNIT  53 AT TIME STEP  1, STRESS PERIOD   3
 UBDSV1 SAVING "FLOW RIGHT FACE " ON UNIT  53 AT TIME STEP  1, STRESS PERIOD   3
 UBDSV1 SAVING "FLOW FRONT FACE " ON UNIT  53 AT TIME STEP  1, STRESS PERIOD   3

 HEAD WILL BE SAVED ON UNIT   51 AT END OF TIME STEP    1, STRESS PERIOD    3
1
  VOLUMETRIC BUDGET FOR ENTIRE MODEL AT END OF TIME STEP    1, STRESS PERIOD   3
  ------------------------------------------------------------------------------

     CUMULATIVE VOLUMES      L**3       RATES FOR THIS TIME STEP      L**3/T
     ------------------                 ------------------------

           IN:                                      IN:
           ---                                      ---
             STORAGE =     2586435.5000               STORAGE =           0.0000
       CONSTANT HEAD =         331.4634         CONSTANT HEAD =           1.7415
               WELLS =           0.0000                 WELLS =           0.0000
       RIVER LEAKAGE =      870331.9375         RIVER LEAKAGE =        1222.7389
            RECHARGE =     7428880.0000              RECHARGE =        4065.1018

            TOTAL IN =    10885979.0000              TOTAL IN =        5289.5820

          OUT:                                     OUT:
          ----                                     ----
             STORAGE =      117199.0938               STORAGE =           0.0000
       CONSTANT HEAD =      443380.1250         CONSTANT HEAD =         137.8559
               WELLS =     4234801.5000                 WELLS =        2327.2019
       RIVER LEAKAGE =     6090786.0000         RIVER LEAKAGE =        2824.5393
            RECHARGE =           0.0000              RECHARGE =           0.0000

           TOTAL OUT =    10886167.0000             TOTAL OUT =        5289.5972

            IN - OUT =        -188.0000              IN - OUT =      -1.5137E-02

 PERCENT DISCREPANCY =          -0.00     PERCENT DISCREPANCY =          -0.00






         TIME SUMMARY AT END OF TIME STEP    1 IN STRESS PERIOD    3
                    SECONDS     MINUTES      HOURS       DAYS        YEARS
                    -----------------------------------------------------------
   TIME STEP LENGTH  86400.      1440.0      24.000      1.0000     2.73785E-03
 STRESS PERIOD TIME  86400.      1440.0      24.000      1.0000     2.73785E-03
         TOTAL TIME 1.57853E+08 2.63088E+06  43848.      1827.0      5.0021    
1

 Run end date and time (yyyy/mm/dd hh:mm:ss): 2016/05/12 12:48:12
 Elapsed run time:  0.018 Seconds

