                                  MODFLOW-2005     
      U.S. GEOLOGICAL SURVEY MODULAR FINITE-DIFFERENCE GROUND-WATER FLOW MODEL
                            VERSION 1.11.00 8/8/2013

 LIST FILE: freyberg.list
                         UNIT    2

 OPENING freyberg.dis
 FILE TYPE:DIS   UNIT   11   STATUS:OLD    
 FORMAT:FORMATTED              ACCESS:SEQUENTIAL          

 OPENING freyberg.bas
 FILE TYPE:BAS6   UNIT   13   STATUS:OLD    
 FORMAT:FORMATTED              ACCESS:SEQUENTIAL          

 OPENING freyberg.pcg
 FILE TYPE:PCG   UNIT   27   STATUS:OLD    
 FORMAT:FORMATTED              ACCESS:SEQUENTIAL          

 OPENING freyberg.hyd
 FILE TYPE:HYD   UNIT   36   STATUS:OLD    
 FORMAT:FORMATTED              ACCESS:SEQUENTIAL          

 OPENING freyberg.hyd.bin
 FILE TYPE:DATA(BINARY)   UNIT  536   STATUS:REPLACE
 FORMAT:UNFORMATTED            ACCESS:STREAM              

 OPENING freyberg.oc
 FILE TYPE:OC   UNIT   14   STATUS:OLD    
 FORMAT:FORMATTED              ACCESS:SEQUENTIAL          

 OPENING freyberg.hds
 FILE TYPE:DATA(BINARY)   UNIT   51   STATUS:REPLACE
 FORMAT:UNFORMATTED            ACCESS:STREAM              

 OPENING freyberg.ddn
 FILE TYPE:DATA(BINARY)   UNIT   52   STATUS:REPLACE
 FORMAT:UNFORMATTED            ACCESS:STREAM              

 OPENING freyberg.cbc
 FILE TYPE:DATA(BINARY)   UNIT   53   STATUS:REPLACE
 FORMAT:UNFORMATTED            ACCESS:STREAM              

 OPENING freyberg.riv
 FILE TYPE:RIV   UNIT   18   STATUS:OLD    
 FORMAT:FORMATTED              ACCESS:SEQUENTIAL          

 OPENING freyberg.rch
 FILE TYPE:RCH   UNIT   19   STATUS:OLD    
 FORMAT:FORMATTED              ACCESS:SEQUENTIAL          

 OPENING freyberg.wel
 FILE TYPE:WEL   UNIT   20   STATUS:OLD    
 FORMAT:FORMATTED              ACCESS:SEQUENTIAL          

 OPENING freyberg.lpf
 FILE TYPE:LPF   UNIT   15   STATUS:OLD    
 FORMAT:FORMATTED              ACCESS:SEQUENTIAL          

 BAS -- BASIC PACKAGE, VERSION 7, 5/2/2005 INPUT READ FROM UNIT   13

 MODFLOW was compiled using mixed precision
 Precision of REAL variables:           6
 Precision of DOUBLE PRECISION variables:          15

 DISCRETIZATION INPUT DATA READ FROM UNIT   11
 # Discretization file for MODFLOW, generated by Flopy.
    1 LAYERS        40 ROWS        20 COLUMNS
    3 STRESS PERIOD(S) IN SIMULATION
 MODEL TIME UNIT IS DAYS
 MODEL LENGTH UNIT IS METERS
  Confining bed flag for each layer:
   0



                               DELR
 READING ON UNIT   11 WITH FORMAT: (20E15.6)           



                               DELC
 READING ON UNIT   11 WITH FORMAT: (40E15.6)           

 TOP ELEVATION OF LAYER 1 =   35.0000    



             MODEL LAYER BOTTOM EL. FOR LAYER   1
 READING ON UNIT   11 WITH FORMAT: (20E15.6)           


 STRESS PERIOD     LENGTH       TIME STEPS     MULTIPLIER FOR DELT    SS FLAG
 ----------------------------------------------------------------------------
        1         1.000000          1                    1.000         SS
        2         1825.000          1                    1.000         TR
        3         1.000000          1                    1.000         SS

 COMBINED STEADY-STATE AND TRANSIENT SIMULATION




 # Basic package file for MODFLOW, generated by Flopy.                           
 THE FREE FORMAT OPTION HAS BEEN SELECTED



                     BOUNDARY ARRAY FOR LAYER   1
 READING ON UNIT   13 WITH FORMAT: (20I10)             

 AQUIFER HEAD WILL BE SET TO  -999.99     AT ALL NO-FLOW NODES (IBOUND=0).



                       INITIAL HEAD FOR LAYER   1
 READING ON UNIT   13 WITH FORMAT: (20E15.6)           
 # Output control package file for MODFLOW, generated by Flopy.

 OUTPUT CONTROL IS SPECIFIED ONLY AT TIME STEPS FOR WHICH OUTPUT IS DESIRED
 COMPACT CELL-BY-CELL BUDGET FILES WILL BE WRITTEN
 AUXILIARY DATA WILL BE SAVED IN CELL-BY-CELL BUDGET FILES
 HEAD PRINT FORMAT CODE IS   0    DRAWDOWN PRINT FORMAT CODE IS   0
 HEADS WILL BE SAVED ON UNIT   51    DRAWDOWNS WILL BE SAVED ON UNIT   52

 LPF -- LAYER-PROPERTY FLOW PACKAGE, VERSION 7, 5/2/2005
         INPUT READ FROM UNIT   15
 # LPF for MODFLOW, generated by Flopy.
 CELL-BY-CELL FLOWS WILL BE SAVED ON UNIT   53
 HEAD AT CELLS THAT CONVERT TO DRY= -1.00000E+30
 No named parameters

   LAYER FLAGS:
 LAYER       LAYTYP        LAYAVG         CHANI        LAYVKA        LAYWET
 ---------------------------------------------------------------------------
    1             1             0     1.000E+00             0             0

   INTERPRETATION OF LAYER FLAGS:
                        INTERBLOCK     HORIZONTAL    DATA IN
         LAYER TYPE   TRANSMISSIVITY   ANISOTROPY   ARRAY VKA   WETTABILITY
 LAYER      (LAYTYP)      (LAYAVG)       (CHANI)      (LAYVKA)      (LAYWET)
 ---------------------------------------------------------------------------
    1   CONVERTIBLE      HARMONIC     1.000E+00    VERTICAL K  NON-WETTABLE

 WETTING CAPABILITY IS NOT ACTIVE IN ANY LAYER



              HYD. COND. ALONG ROWS FOR LAYER   1
 READING ON UNIT   15 WITH FORMAT: (FREE)              

      VERTICAL HYD. COND. =   1.00000     FOR LAYER   1

         SPECIFIC STORAGE =  1.000000E-04 FOR LAYER   1

           SPECIFIC YIELD =  0.250000     FOR LAYER   1

 WEL -- WELL PACKAGE, VERSION 7, 5/2/2005 INPUT READ FROM UNIT   20
 # Well file for MODFLOW, generated by Flopy.
 No named parameters
 MAXIMUM OF      6 ACTIVE WELLS AT ONE TIME


     0 Well parameters

 RIV -- RIVER PACKAGE, VERSION 7, 5/2/2005 INPUT READ FROM UNIT   18
 # RIV for MODFLOW, generated by Flopy.
 No named parameters
 MAXIMUM OF     40 ACTIVE RIVER REACHES AT ONE TIME


     0 River parameters

 RCH -- RECHARGE PACKAGE, VERSION 7, 5/2/2005 INPUT READ FROM UNIT   19
 # RCH for MODFLOW, generated by Flopy.
 No named parameters
 OPTION 3 -- RECHARGE TO HIGHEST ACTIVE NODE IN EACH VERTICAL COLUMN


     0 Recharge parameters

 PCG -- CONJUGATE-GRADIENT SOLUTION PACKAGE, VERSION 7, 5/2/2005
 # PCG for MODFLOW, generated by Flopy.
 MAXIMUM OF    100 CALLS OF SOLUTION ROUTINE
 MAXIMUM OF     25 INTERNAL ITERATIONS PER CALL TO SOLUTION ROUTINE
 MATRIX PRECONDITIONING TYPE :    1
 IHCOFADD option -- When an active cell is surrounded by dry cells, convert
 the cell to dry only if storage and head-dependent boundary flow are 0.



                                    SOLUTION BY THE CONJUGATE-GRADIENT METHOD
                                   -------------------------------------------
                    MAXIMUM NUMBER OF CALLS TO PCG ROUTINE =      100
                        MAXIMUM ITERATIONS PER CALL TO PCG =       25
                               MATRIX PRECONDITIONING TYPE =        1
        RELAXATION FACTOR (ONLY USED WITH PRECOND. TYPE 1) =    0.10000E+01
 PARAMETER OF POLYNOMIAL PRECOND. = 2 (2) OR IS CALCULATED :        2
                         HEAD CHANGE CRITERION FOR CLOSURE =    0.10000E-04
                     RESIDUAL CHANGE CRITERION FOR CLOSURE =    0.10000E+00
            PCG HEAD AND RESIDUAL CHANGE PRINTOUT INTERVAL =        5
     PRINTING FROM SOLVER IS LIMITED(1) OR SUPPRESSED (>1) =        0
                            STEADY-STATE DAMPING PARAMETER =    0.70000E+00
                               TRANSIENT DAMPING PARAMETER =    0.70000E+00

 HYD -- HYDROGRAPH DATA FOR BAS PACKAGE, VERSION 7, 07/14/2006
         INPUT READ FROM UNIT 36
 HYDROGRAPH VALUES WILL BE SAVED ON UNIT: 536
 HYDROGRAPH VALUES AT DRY CELLS WILL BE:  -1.00000E+07

 ARR INTYP  KLAY     XL            YL         HYDLBL
 ----------------------------------------------------------------
 HD   I      1   4.12500E+03   9.12500E+03  HDI001or03c16       
 HD   I      1   2.62500E+03   9.12500E+03  HDI001or03c10       
 HD   I      1   2.37500E+03   8.87500E+03  HDI001or04c9        
 HD   I      1   6.25000E+02   7.37500E+03  HDI001or10c2        
 HD   I      1   2.87500E+03   6.37500E+03  HDI001or14c11       
 HD   I      1   4.37500E+03   5.87500E+03  HDI001or16c17       
 HD   I      1   2.87500E+03   4.37500E+03  HDI001or22c11       
 HD   I      1   4.12500E+03   4.12500E+03  HDI001or23c16       
 HD   I      1   1.37500E+03   3.62500E+03  HDI001or25c5        
 HD   I      1   1.87500E+03   3.12500E+03  HDI001or27c7        
 HD   I      1   4.12500E+03   2.37500E+03  HDI001or30c16       
 HD   I      1   2.12500E+03   1.37500E+03  HDI001or34c8        
 HD   I      1   2.87500E+03   1.12500E+03  HDI001or35c11       
 HD   I      1   6.25000E+02   9.37500E+03  HDI001fr02c02       
 HD   I      1   3.37500E+03   9.62500E+03  HDI001fr01c13       
 HD   I      1   3.87500E+03   7.62500E+03  HDI001fr09c15       
 HD   I      1   2.62500E+03   3.62500E+03  HDI001fr25c10       
1
                            STRESS PERIOD NO.    1, LENGTH =   1.000000    
                            -----------------------------------------------

                              NUMBER OF TIME STEPS =     1

                               MULTIPLIER FOR DELT =     1.000

                            INITIAL TIME STEP SIZE =   1.000000    

 WELL NO.  LAYER   ROW   COL   STRESS RATE         
 --------------------------------------------------
      1      1      9     16      -628.8    
      2      1     11     13      -330.9    
      3      1     20     14      -339.7    
      4      1     26     10      -66.29    
      5      1     29      6      -64.28    
      6      1     34     12      -444.3    

      6 WELLS

 REACH NO.  LAYER   ROW   COL     STAGE      CONDUCTANCE     BOTTOM EL.         
 -------------------------------------------------------------------------------
      1      1      1     15       20.19           5776.           20.00    
      2      1      2     15       19.60           3790.           19.75    
      3      1      3     15       19.89           5532.           19.50    
      4      1      4     15       19.38           6135.           19.25    
      5      1      5     15       19.28           5536.           19.00    
      6      1      6     15       19.22           3842.           18.75    
      7      1      7     15       18.90           2866.           18.50    
      8      1      8     15       18.42           4318.           18.25    
      9      1      9     15       18.10           4796.           18.00    
     10      1     10     15       18.88           4638.           17.75    
     11      1     11     15       18.01           4619.           17.50    
     12      1     12     15       17.35           5474.           17.25    
     13      1     13     15       17.33           3453.           17.00    
     14      1     14     15       17.56           6251.           16.75    
     15      1     15     15       16.76           5307.           16.50    
     16      1     16     15       16.28           6982.           16.25    
     17      1     17     15       16.41           5070.           16.00    
     18      1     18     15       15.91           4556.           15.75    
     19      1     19     15       16.06           5303.           15.50    
     20      1     20     15       16.06           4765.           15.25    
     21      1     21     15       15.52           5390.           15.00    
     22      1     22     15       15.39           2649.           14.75    
     23      1     23     15       15.16           4347.           14.50    
     24      1     24     15       15.01           5110.           14.25    
     25      1     25     15       14.90           3705.           14.00    
     26      1     26     15       14.49           3711.           13.75    
     27      1     27     15       14.17           4484.           13.50    
     28      1     28     15       14.01           4405.           13.25    
     29      1     29     15       13.73           5105.           13.00    
     30      1     30     15       13.58           5620.           12.75    
     31      1     31     15       13.32           3492.           12.50    
     32      1     32     15       13.14           5515.           12.25    
     33      1     33     15       12.85           4310.           12.00    
     34      1     34     15       12.55           6270.           11.75    
     35      1     35     15       12.22           5453.           11.50    
     36      1     36     15       12.25           4212.           11.25    
     37      1     37     15       11.85           6121.           11.00    
     38      1     38     15       11.90           6083.           10.75    
     39      1     39     15       11.48           3721.           10.50    
     40      1     40     15       11.24           5427.           10.25    

     40 RIVER REACHES

                 RECHARGE =  1.359499E-04

 SOLVING FOR HEAD 


    27 CALLS TO PCG ROUTINE FOR TIME STEP   1 IN STRESS PERIOD    1
   314 TOTAL ITERATIONS

 MAXIMUM HEAD CHANGE FOR EACH ITERATION (1 INDICATES THE FIRST INNER ITERATION):

    HEAD CHANGE    HEAD CHANGE    HEAD CHANGE    HEAD CHANGE    HEAD CHANGE 
   LAYER,ROW,COL  LAYER,ROW,COL  LAYER,ROW,COL  LAYER,ROW,COL  LAYER,ROW,COL
 ---------------------------------------------------------------------------
  1  -64.92      0  -26.97      0   18.23      0   10.95      0   4.658    
   (  1, 39,  9)  (  1,  9,  4)  (  1,  9,  4)  (  1, 39,  9)  (  1, 35, 10)
  0  -2.584      0  -1.301      0 -0.4248      0 -0.2358      0 -0.1005    
   (  1, 30,  7)  (  1, 19,  2)  (  1, 37,  5)  (  1,  8,  5)  (  1, 30,  7)
  0 -0.6973E-01  0  0.5165E-01  0  0.2382E-01  0  0.1510E-01  0 -0.5825E-02
   (  1,  9,  4)  (  1,  9,  4)  (  1,  8,  5)  (  1, 37, 11)  (  1, 38, 12)
  0  0.2398E-02  0 -0.8412E-03  0 -0.4444E-03  0  0.2572E-03  0 -0.1688E-03
   (  1, 37, 10)  (  1, 35,  8)  (  1, 36,  9)  (  1, 33,  7)  (  1,  9,  4)
  0  0.1472E-03  0 -0.8998E-04  0 -0.4170E-04  0  0.3701E-04  0  0.1022E-04
   (  1,  9,  4)  (  1, 10,  1)  (  1, 30,  7)  (  1, 29,  7)  (  1, 16,  3)
  1  -16.33      0  -12.10      0   4.620      0   3.088      0   1.472    
   (  1, 39,  9)  (  1,  9,  4)  (  1, 38,  9)  (  1, 39,  9)  (  1, 39, 12)
  0 -0.8056      0 -0.3374      0 -0.1346      0 -0.1088      0 -0.3830E-01
   (  1, 30,  6)  (  1, 18,  1)  (  1, 30,  7)  (  1,  8,  5)  (  1, 26,  8)
  0 -0.1862E-01  0  0.8912E-02  0 -0.6767E-02  0  0.5028E-02  0 -0.1843E-02
   (  1, 33,  2)  (  1,  9,  4)  (  1,  9,  4)  (  1, 36, 11)  (  1, 38, 12)
  0  0.6763E-03  0 -0.2487E-03  0 -0.1071E-03  0 -0.5295E-04  0  0.4000E-04
   (  1, 37, 10)  (  1, 35,  8)  (  1, 34, 10)  (  1, 36,  8)  (  1, 30,  5)
  0  0.3964E-04  0 -0.2439E-04  0  0.1749E-04  0 -0.7794E-05  1   11.19    
   (  1,  9,  4)  (  1,  9,  1)  (  1, 29,  7)  (  1, 30,  7)  (  1,  9,  4)
  0  -8.530      0  -2.816      0  0.7722      0 -0.5798      0  0.2404    
   (  1,  9,  4)  (  1,  8,  5)  (  1, 34, 12)  (  1, 29,  7)  (  1, 39, 12)
  0 -0.1807      0 -0.7293E-01  0 -0.4491E-01  0 -0.1714E-01  0  0.7027E-02
   (  1, 30,  4)  (  1, 23,  5)  (  1, 32,  1)  (  1, 27,  8)  (  1, 38, 10)
  0 -0.6416E-02  0 -0.4039E-02  0  0.1800E-02  0  0.5219E-03  0 -0.3221E-03
   (  1,  9,  4)  (  1, 31,  3)  (  1, 36, 11)  (  1, 35, 12)  (  1, 25, 10)
  0 -0.1176E-03  0 -0.5944E-04  0 -0.2547E-04  0 -0.1378E-04  0  0.1088E-04
   (  1, 36,  7)  (  1, 36, 13)  (  1, 38, 10)  (  1, 35, 10)  (  1, 30,  6)
  0 -0.6382E-05  1   3.106      0  -2.126      0  -1.066      0  0.4024    
   (  1,  9,  4)  (  1,  9,  4)  (  1,  9,  4)  (  1,  8,  5)  (  1, 34, 12)
  0 -0.3033      0 -0.1012      0 -0.8938E-01  0 -0.2645E-01  0 -0.1896E-01
   (  1, 30,  7)  (  1,  8,  5)  (  1, 31,  5)  (  1, 25,  5)  (  1, 32,  1)
  0 -0.7638E-02  0 -0.3802E-02  0  0.2145E-02  0 -0.1662E-02  0  0.6239E-03
   (  1, 30,  6)  (  1, 10,  4)  (  1,  9,  4)  (  1, 28,  7)  (  1, 37, 11)
  0  0.2214E-03  0 -0.1510E-03  0 -0.5780E-04  0 -0.2446E-04  0 -0.1428E-04
   (  1, 27, 11)  (  1, 25, 10)  (  1, 34,  5)  (  1, 23, 11)  (  1, 30,  6)
  0 -0.1240E-04  0  0.6897E-05  1  -1.241      0 -0.2906      0 -0.3682    
   (  1,  9,  4)  (  1,  9,  4)  (  1, 34, 12)  (  1,  8,  5)  (  1,  9,  4)
  0  0.1913      0 -0.1136      0 -0.4872E-01  0 -0.2544E-01  0 -0.1211E-01
   (  1, 34, 12)  (  1, 30,  7)  (  1,  8,  5)  (  1, 32,  6)  (  1, 29,  7)
  0 -0.8055E-02  0 -0.2968E-02  0 -0.1790E-02  0 -0.7403E-03  0 -0.5280E-03
   (  1,  9,  4)  (  1, 33,  2)  (  1, 26, 11)  (  1, 31,  3)  (  1,  9,  4)
  0  0.3445E-03  0  0.8498E-04  0  0.5296E-04  0 -0.2227E-04  0 -0.1036E-04
   (  1, 34, 12)  (  1, 35, 11)  (  1,  6,  7)  (  1, 34,  5)  (  1, 23, 11)
  0 -0.7197E-05  1 -0.6551      0  0.2264      0 -0.1905      0  0.7012E-01
   (  1, 31,  7)  (  1, 34, 12)  (  1,  9,  4)  (  1, 35, 10)  (  1, 32,  6)
  0 -0.4709E-01  0  0.2519E-01  0 -0.1921E-01  0  0.1038E-01  0  0.3571E-02
   (  1, 28,  2)  (  1, 29,  7)  (  1, 33, 11)  (  1, 31,  9)  (  1, 24, 10)
  0  0.2053E-02  0 -0.7795E-03  0  0.5489E-03  0  0.2833E-03  0 -0.1889E-03
   (  1, 32,  1)  (  1, 34,  7)  (  1,  9,  4)  (  1,  8,  5)  (  1,  4,  1)
  0  0.1106E-03  0 -0.3602E-04  0  0.2538E-04  0 -0.9928E-05  1 -0.3489    
   (  1,  6,  3)  (  1,  4,  1)  (  1,  6,  7)  (  1,  5,  5)  (  1, 34, 12)
  0  0.6714E-01  0 -0.6668E-01  0  0.3071E-01  0  0.1813E-01  0  0.1031E-01
   (  1,  9,  4)  (  1, 35, 10)  (  1, 34, 12)  (  1, 34, 12)  (  1, 29,  7)
  0 -0.9689E-02  0  0.3389E-02  0 -0.1967E-02  0  0.9758E-03  0 -0.4639E-03
   (  1, 33, 11)  (  1, 31,  9)  (  1,  7,  3)  (  1,  5,  1)  (  1, 25, 11)
  0 -0.2569E-03  0  0.2448E-03  0  0.8471E-04  0  0.2873E-04  0 -0.1611E-04
   (  1,  9,  4)  (  1,  9,  4)  (  1, 34,  6)  (  1, 38,  9)  (  1, 26, 10)
  0  0.7527E-05  1 -0.1750      0  0.2777E-01  0 -0.2525E-01  0  0.1320E-01
   (  1,  6,  7)  (  1, 34, 12)  (  1,  9,  4)  (  1, 35, 10)  (  1, 34, 12)
  0  0.8562E-02  0  0.5336E-02  0 -0.4837E-02  0  0.1294E-02  0 -0.8130E-03
   (  1, 34, 12)  (  1, 29,  7)  (  1, 33, 11)  (  1, 30,  9)  (  1,  7,  3)
  0  0.4397E-03  0 -0.1980E-03  0 -0.9595E-04  0 -0.7149E-04  0  0.4387E-04
   (  1,  5,  1)  (  1, 25, 11)  (  1, 35,  8)  (  1,  9,  4)  (  1, 29,  8)
  0  0.1370E-04  0 -0.7646E-05  1 -0.8716E-01  0  0.1102E-01  0 -0.9329E-02
   (  1, 26, 10)  (  1, 26, 11)  (  1, 34, 12)  (  1,  9,  4)  (  1, 35, 10)
  0  0.6188E-02  0 -0.3796E-02  0  0.2793E-02  0 -0.2300E-02  0  0.6287E-03
   (  1, 33, 12)  (  1, 30,  7)  (  1, 29,  7)  (  1, 33, 11)  (  1, 32, 13)
  0 -0.3923E-03  0  0.2128E-03  0 -0.9416E-04  0 -0.4437E-04  0  0.3608E-04
   (  1,  7,  3)  (  1,  6,  2)  (  1, 25, 11)  (  1, 35,  8)  (  1,  9,  4)
  0  0.2333E-04  0  0.7269E-05  1 -0.4732E-01  0 -0.4300E-02  0 -0.4332E-02
   (  1, 37, 10)  (  1, 26, 10)  (  1, 34, 12)  (  1, 35, 10)  (  1,  9,  4)
  0  0.3597E-02  0 -0.1933E-02  0  0.1460E-02  0 -0.1108E-02  0  0.3185E-03
   (  1, 33, 12)  (  1, 30,  7)  (  1, 29,  7)  (  1, 33, 11)  (  1, 32, 13)
  0 -0.2209E-03  0  0.9794E-04  0 -0.5019E-04  0  0.2374E-04  0 -0.2195E-04
   (  1,  7,  3)  (  1,  7,  3)  (  1, 25, 11)  (  1,  9,  1)  (  1,  9,  4)
  0  0.1330E-04  0  0.4006E-05  1 -0.2773E-01  0 -0.2948E-02  0 -0.2409E-02
   (  1, 37, 10)  (  1, 26, 10)  (  1, 34, 12)  (  1, 35, 10)  (  1,  9,  4)
  0  0.1981E-02  0 -0.1050E-02  0  0.8198E-03  0 -0.5877E-03  0  0.1818E-03
   (  1, 33, 12)  (  1, 30,  7)  (  1, 29,  7)  (  1, 33, 11)  (  1,  8,  5)
  0 -0.1261E-03  0 -0.6018E-04  0 -0.2750E-04  0 -0.1181E-04  0  0.8849E-05
   (  1,  7,  3)  (  1, 32, 14)  (  1, 25, 11)  (  1, 37,  9)  (  1,  9,  4)
  1 -0.1678E-01  0 -0.1817E-02  0 -0.1442E-02  0  0.1176E-02  0 -0.6065E-03
   (  1, 34, 12)  (  1, 35, 10)  (  1,  9,  4)  (  1, 33, 12)  (  1, 30,  7)
  0  0.4882E-03  0 -0.3396E-03  0  0.1159E-03  0 -0.7413E-04  0 -0.3736E-04
   (  1, 29,  7)  (  1, 33, 11)  (  1,  8,  5)  (  1,  7,  3)  (  1, 32, 14)
  0 -0.1758E-04  0 -0.6427E-05  1 -0.1028E-01  0 -0.1208E-02  0 -0.8221E-03
   (  1, 36, 10)  (  1, 36, 10)  (  1, 34, 12)  (  1, 35, 10)  (  1,  9,  4)
  0  0.5986E-03  0 -0.3647E-03  0  0.2983E-03  0 -0.2042E-03  0  0.7271E-04
   (  1,  9,  4)  (  1, 30,  7)  (  1, 29,  7)  (  1, 33, 11)  (  1,  8,  5)
  0 -0.4464E-04  0 -0.2315E-04  0 -0.1103E-04  0 -0.3884E-05  1 -0.6315E-02
   (  1,  7,  3)  (  1, 32, 14)  (  1, 36, 10)  (  1, 38,  9)  (  1, 34, 12)
  0 -0.7513E-03  0 -0.4945E-03  0  0.3734E-03  0 -0.2215E-03  0  0.1831E-03
   (  1, 35, 10)  (  1,  9,  4)  (  1,  9,  4)  (  1, 30,  7)  (  1, 29,  7)
  0 -0.1246E-03  0  0.4520E-04  0 -0.2722E-04  0 -0.1431E-04  0 -0.6847E-05
   (  1, 33, 11)  (  1,  8,  5)  (  1,  7,  3)  (  1, 32, 14)  (  1, 36, 10)
  1 -0.3886E-02  0 -0.4519E-03  0 -0.3201E-03  0  0.2352E-03  0 -0.1352E-03
   (  1, 34, 12)  (  1, 35, 10)  (  1,  9,  4)  (  1, 33, 12)  (  1, 30,  7)
  0  0.1122E-03  0 -0.7659E-04  0  0.2804E-04  0 -0.1664E-04  0 -0.8828E-05
   (  1, 29,  7)  (  1, 33, 11)  (  1,  8,  5)  (  1,  7,  3)  (  1, 32, 14)
  1 -0.2394E-02  0 -0.2721E-03  0 -0.2008E-03  0  0.1540E-03  0 -0.8266E-04
   (  1, 34, 12)  (  1, 35, 10)  (  1,  9,  4)  (  1, 33, 12)  (  1, 30,  7)
  0  0.6910E-04  0 -0.4745E-04  0  0.1699E-04  0 -0.1040E-04  0 -0.5423E-05
   (  1, 29,  7)  (  1, 33, 11)  (  1,  8,  5)  (  1,  7,  3)  (  1, 32, 14)
  1 -0.1476E-02  0 -0.1662E-03  0 -0.1242E-03  0  0.9647E-04  0 -0.5080E-04
   (  1, 34, 12)  (  1, 35, 10)  (  1,  9,  4)  (  1, 33, 12)  (  1, 30,  7)
  0  0.4259E-04  0 -0.2931E-04  0  0.1038E-04  0 -0.6447E-05  1 -0.9087E-03
   (  1, 29,  7)  (  1, 33, 11)  (  1,  8,  5)  (  1,  7,  3)  (  1, 34, 12)
  0 -0.1035E-03  0 -0.7852E-04  0  0.5811E-04  0 -0.3115E-04  0  0.2644E-04
   (  1, 35, 10)  (  1,  9,  4)  (  1, 33, 12)  (  1, 30,  7)  (  1, 29,  7)
  0 -0.1748E-04  0  0.6840E-05  1 -0.5580E-03  0 -0.6112E-04  0 -0.4562E-04
   (  1, 33, 11)  (  1,  8,  5)  (  1, 34, 12)  (  1, 35, 10)  (  1,  9,  4)
  0  0.3773E-04  0 -0.2008E-04  0  0.1657E-04  0 -0.1158E-04  0  0.3618E-05
   (  1, 33, 12)  (  1, 35, 11)  (  1, 29,  7)  (  1, 33, 11)  (  1, 32, 13)
  1 -0.3443E-03  0 -0.3779E-04  0 -0.2699E-04  0  0.2270E-04  0 -0.1266E-04
   (  1, 34, 12)  (  1, 35, 10)  (  1,  9,  4)  (  1, 33, 12)  (  1, 30,  7)
  0  0.1029E-04  0 -0.7115E-05  1 -0.2104E-03  0 -0.2632E-04  0 -0.1604E-04
   (  1, 29,  7)  (  1, 33, 11)  (  1, 34, 12)  (  1, 35, 10)  (  1,  9,  4)
  0  0.1296E-04  0 -0.7592E-05  1 -0.1161E-03  0 -0.2797E-04  0  0.1816E-04
   (  1,  9,  4)  (  1, 35, 11)  (  1, 34, 12)  (  1, 34, 12)  (  1, 33, 12)
  0  0.6082E-05  1 -0.4545E-04  0 -0.3404E-04  0 -0.1570E-04  0  0.5892E-05
   (  1,  9,  4)  (  1, 34, 12)  (  1, 34, 12)  (  1, 34, 12)  (  1, 33, 12)
  1 -0.3526E-04  0 -0.1160E-04  0 -0.7636E-05  1 -0.1062E-04  0 -0.2023E-04
   (  1, 34, 12)  (  1, 34, 12)  (  1, 34, 12)  (  1, 34, 12)  (  1, 34, 12)
  0  0.5796E-05  1 -0.1081E-04  0 -0.9947E-05  1 -0.2966E-05
   (  1,  9,  4)  (  1, 34, 12)  (  1, 34, 12)  (  1,  9,  4)

 MAXIMUM RESIDUAL FOR EACH ITERATION (1 INDICATES THE FIRST INNER ITERATION):

    RESIDUAL       RESIDUAL       RESIDUAL       RESIDUAL       RESIDUAL    
   LAYER,ROW,COL  LAYER,ROW,COL  LAYER,ROW,COL  LAYER,ROW,COL  LAYER,ROW,COL
 ---------------------------------------------------------------------------
  1  -4080.      0  -2895.      0  -2067.      0  -1198.      0  -548.1    
   (  1, 39,  9)  (  1, 39,  9)  (  1, 39,  7)  (  1, 39,  7)  (  1, 39,  7)
  0  -308.6      0   159.0      0  -82.34      0  -56.27      0  -34.17    
   (  1, 39,  7)  (  1, 38,  7)  (  1, 39, 15)  (  1, 39, 15)  (  1, 39, 15)
  0  -21.06      0  -15.86      0  -10.59      0  -5.348      0  -2.531    
   (  1, 39, 15)  (  1, 39, 15)  (  1, 39, 15)  (  1, 39, 15)  (  1, 39, 15)
  0  -1.238      0 -0.5777      0 -0.2383      0 -0.1432      0 -0.9048E-01
   (  1, 39, 15)  (  1, 39, 15)  (  1, 39, 15)  (  1, 39, 15)  (  1, 39, 15)
  0 -0.7025E-01  0 -0.3275E-01  0 -0.2024E-01  0 -0.8653E-02  0 -0.3577E-02
   (  1, 39, 15)  (  1, 39, 15)  (  1, 39, 15)  (  1, 39, 15)  (  1, 39, 15)
  1  -851.2      0  -720.8      0  -452.5      0  -256.1      0  -118.8    
   (  1, 39,  9)  (  1, 39,  9)  (  1, 39,  7)  (  1, 39,  7)  (  1, 39,  7)
  0  -61.20      0   36.34      0  -19.96      0  -13.32      0  -8.319    
   (  1, 39,  7)  (  1, 38,  7)  (  1, 39, 15)  (  1, 39, 15)  (  1, 39, 15)
  0  -4.856      0  -2.851      0  -2.440      0  -1.274      0 -0.6191    
   (  1, 39, 15)  (  1, 39, 15)  (  1, 39, 15)  (  1, 39, 15)  (  1, 39, 15)
  0 -0.3025      0 -0.1494      0 -0.6497E-01  0 -0.3214E-01  0 -0.2269E-01
   (  1, 39, 15)  (  1, 39, 15)  (  1, 39, 15)  (  1, 39, 15)  (  1, 39, 15)
  0 -0.1645E-01  0 -0.9097E-02  0 -0.4853E-02  0 -0.2458E-02  1   567.1    
   (  1, 39, 15)  (  1, 39, 15)  (  1, 39, 15)  (  1, 39, 15)  (  1, 38, 15)
  0  -155.1      0  -103.7      0  -63.03      0  -26.12      0  -11.70    
   (  1, 39,  9)  (  1, 39,  7)  (  1, 39,  7)  (  1, 39,  7)  (  1, 39,  7)
  0   8.077      0  -4.480      0  -2.990      0  -1.825      0  -1.162    
   (  1, 38,  7)  (  1, 39, 15)  (  1, 39, 15)  (  1, 39, 15)  (  1, 39, 15)
  0 -0.9997      0 -0.5518      0 -0.3088      0 -0.1781      0 -0.9252E-01
   (  1, 39, 15)  (  1, 39, 15)  (  1, 39, 15)  (  1, 39, 15)  (  1, 39, 15)
  0 -0.4800E-01  0 -0.2125E-01  0 -0.9907E-02  0 -0.6648E-02  0 -0.3891E-02
   (  1, 39, 15)  (  1, 39, 15)  (  1, 39, 15)  (  1, 39, 15)  (  1, 39, 15)
  0 -0.3125E-02  1   160.9      0   72.59      0  -39.81      0  -21.27    
   (  1, 39, 15)  (  1, 38, 15)  (  1, 38, 15)  (  1, 34, 12)  (  1, 34, 12)
  0  -8.552      0  -3.886      0  -2.450      0  -1.543      0 -0.8971    
   (  1, 34, 12)  (  1, 34, 12)  (  1,  9, 16)  (  1,  9, 16)  (  1,  9, 16)
  0 -0.5067      0 -0.3170      0 -0.2812      0 -0.1658      0 -0.9064E-01
   (  1, 39, 15)  (  1, 39, 15)  (  1, 39, 15)  (  1, 39, 15)  (  1, 39, 15)
  0 -0.5490E-01  0 -0.2996E-01  0 -0.1565E-01  0 -0.7439E-02  0 -0.5696E-02
   (  1, 39, 15)  (  1, 39, 15)  (  1, 39, 15)  (  1, 39, 15)  (  1, 39, 15)
  0 -0.3429E-02  0 -0.2816E-02  1   55.18      0   30.80      0  -19.60    
   (  1, 39, 15)  (  1, 39, 15)  (  1, 34, 15)  (  1, 34, 15)  (  1, 34, 12)
  0  -10.93      0  -5.048      0  -2.215      0  -1.174      0 -0.7213    
   (  1, 34, 12)  (  1, 34, 12)  (  1, 34, 12)  (  1, 32, 13)  (  1,  9, 16)
  0 -0.4536      0 -0.2106      0 -0.9873E-01  0 -0.5807E-01  0 -0.4975E-01
   (  1,  9, 16)  (  1,  9, 16)  (  1,  9, 16)  (  1, 39, 15)  (  1, 39, 15)
  0 -0.2729E-01  0 -0.1592E-01  0 -0.8909E-02  0 -0.4738E-02  0 -0.2352E-02
   (  1, 39, 15)  (  1, 39, 15)  (  1, 39, 15)  (  1, 39, 15)  (  1, 39, 15)
  0 -0.1774E-02  1   56.10      0   44.99      0   27.24      0   17.23    
   (  1, 39, 15)  (  1, 34, 15)  (  1,  1, 15)  (  1,  3, 14)  (  1,  3, 14)
  0   9.189      0  -4.936      0  -3.118      0  -1.390      0  0.7109    
   (  1,  3, 14)  (  1,  2, 15)  (  1,  2, 15)  (  1,  3, 13)  (  1,  4, 13)
  0  0.3790      0  0.1497      0  0.1170      0 -0.5616E-01  0  0.3487E-01
   (  1,  4, 13)  (  1,  4, 13)  (  1,  4, 13)  (  1,  4, 12)  (  1,  5, 12)
  0  0.1787E-01  0  0.9301E-02  0  0.3005E-02  0  0.1512E-02  1   23.25    
   (  1,  5, 12)  (  1,  5, 12)  (  1,  5, 12)  (  1,  6, 11)  (  1, 34, 15)
  0   17.78      0   9.676      0   6.418      0   3.454      0   1.948    
   (  1, 34, 15)  (  1, 37, 15)  (  1,  3, 14)  (  1,  3, 14)  (  1,  3, 14)
  0  -1.122      0  0.5368      0 -0.3078      0  0.1768      0  0.8831E-01
   (  1,  2, 15)  (  1,  3, 15)  (  1,  3, 13)  (  1,  4, 13)  (  1,  4, 13)
  0  0.5843E-01  0  0.2880E-01  0 -0.1471E-01  0  0.6870E-02  0  0.3357E-02
   (  1,  4, 13)  (  1,  4, 13)  (  1,  4, 12)  (  1,  5, 12)  (  1,  5, 12)
  0  0.1096E-02  1   10.66      0   8.311      0   5.100      0   2.770    
   (  1,  5, 12)  (  1, 34, 15)  (  1, 34, 15)  (  1, 37, 15)  (  1, 37, 15)
  0   1.288      0  0.7891      0  0.4579      0  0.2210      0  0.1245    
   (  1,  3, 14)  (  1,  3, 14)  (  1,  3, 15)  (  1,  3, 15)  (  1,  3, 15)
  0  0.6177E-01  0  0.3124E-01  0  0.1472E-01  0  0.1104E-01  0 -0.5020E-02
   (  1,  4, 13)  (  1,  4, 13)  (  1,  4, 13)  (  1,  4, 13)  (  1,  4, 12)
  0  0.2543E-02  0  0.1290E-02  1   4.264      0   3.397      0   2.402    
   (  1,  5, 12)  (  1,  5, 12)  (  1, 34, 15)  (  1, 34, 15)  (  1, 37, 15)
  0   1.408      0  0.6939      0  0.3853      0  0.2065      0  0.1017    
   (  1, 37, 15)  (  1, 37, 15)  (  1, 16, 15)  (  1,  3, 15)  (  1,  3, 15)
  0  0.5827E-01  0  0.2548E-01  0  0.1108E-01  0  0.5932E-02  0  0.4966E-02
   (  1,  3, 15)  (  1,  3, 15)  (  1, 30, 15)  (  1, 31, 15)  (  1, 31, 15)
  0  0.2713E-02  0  0.1342E-02  1   1.459      0   1.155      0  0.8934    
   (  1, 31, 15)  (  1, 31, 15)  (  1, 34, 15)  (  1, 34, 15)  (  1, 34, 15)
  0  0.5662      0  0.3117      0  0.1800      0  0.1006      0  0.4983E-01
   (  1, 37, 15)  (  1, 37, 15)  (  1, 16, 15)  (  1, 16, 15)  (  1, 32, 15)
  0  0.3065E-01  0  0.1488E-01  0  0.6693E-02  0  0.3799E-02  0  0.3070E-02
   (  1, 32, 15)  (  1, 32, 15)  (  1, 30, 15)  (  1, 31, 15)  (  1, 31, 15)
  0  0.1724E-02  0  0.8881E-03  1 -0.5263      0  0.4616      0  0.3877    
   (  1, 31, 15)  (  1, 31, 15)  (  1, 33, 12)  (  1, 35, 11)  (  1, 35, 11)
  0  0.2700      0  0.1408      0  0.7269E-01  0 -0.4462E-01  0  0.2564E-01
   (  1, 35, 11)  (  1, 35, 11)  (  1, 35, 11)  (  1, 32, 13)  (  1, 32, 14)
  0  0.1794E-01  0  0.7691E-02  0  0.3177E-02  0  0.1799E-02  0  0.1491E-02
   (  1, 32, 14)  (  1, 32, 14)  (  1, 30, 15)  (  1, 31, 15)  (  1, 31, 15)
  1 -0.3216      0  0.2797      0  0.2345      0  0.1658      0  0.8833E-01
   (  1, 33, 12)  (  1, 35, 11)  (  1, 35, 11)  (  1, 35, 11)  (  1, 35, 11)
  0  0.4626E-01  0 -0.2734E-01  0  0.1562E-01  0  0.1114E-01  0  0.4800E-02
   (  1, 35, 11)  (  1, 32, 13)  (  1, 32, 14)  (  1, 32, 14)  (  1, 32, 14)
  0 -0.1856E-02  0  0.9662E-03  1 -0.1970      0  0.1700      0  0.1361    
   (  1, 31, 14)  (  1, 37,  9)  (  1, 33, 12)  (  1, 35, 11)  (  1, 35, 11)
  0  0.1015      0  0.5451E-01  0  0.2861E-01  0 -0.1681E-01  0  0.9590E-02
   (  1, 35, 11)  (  1, 35, 11)  (  1, 35, 11)  (  1, 32, 13)  (  1, 32, 14)
  0  0.6875E-02  0  0.2951E-02  0 -0.1131E-02  0  0.5698E-03  1 -0.1209    
   (  1, 32, 14)  (  1, 32, 14)  (  1, 31, 14)  (  1, 37,  9)  (  1, 33, 12)
  0  0.1043      0  0.8253E-01  0  0.6231E-01  0  0.3353E-01  0  0.1760E-01
   (  1, 35, 11)  (  1, 35, 11)  (  1, 35, 11)  (  1, 35, 11)  (  1, 35, 11)
  0 -0.1034E-01  0  0.5899E-02  0  0.4238E-02  0  0.1811E-02  0 -0.6936E-03
   (  1, 32, 13)  (  1, 32, 14)  (  1, 32, 14)  (  1, 32, 14)  (  1, 31, 14)
  1 -0.7440E-01  0  0.6437E-01  0  0.5219E-01  0  0.3842E-01  0  0.2065E-01
   (  1, 33, 12)  (  1, 35, 11)  (  1, 35, 11)  (  1, 35, 11)  (  1, 35, 11)
  0  0.1084E-01  0 -0.6369E-02  0  0.3637E-02  0  0.2612E-02  0  0.1117E-02
   (  1, 35, 11)  (  1, 32, 13)  (  1, 32, 14)  (  1, 32, 14)  (  1, 32, 14)
  1 -0.4582E-01  0  0.3980E-01  0  0.3276E-01  0  0.2376E-01  0  0.1275E-01
   (  1, 33, 12)  (  1, 35, 11)  (  1, 35, 11)  (  1, 35, 11)  (  1, 35, 11)
  0  0.6662E-02  0 -0.3925E-02  0  0.2233E-02  0  0.1606E-02  0  0.6825E-03
   (  1, 35, 11)  (  1, 32, 13)  (  1, 32, 14)  (  1, 32, 14)  (  1, 32, 14)
  1 -0.2823E-01  0  0.2456E-01  0  0.2030E-01  0  0.1466E-01  0  0.7867E-02
   (  1, 33, 12)  (  1, 35, 11)  (  1, 35, 11)  (  1, 35, 11)  (  1, 35, 11)
  0  0.4100E-02  0 -0.2417E-02  0  0.1374E-02  0  0.9885E-03  1 -0.1739E-01
   (  1, 35, 11)  (  1, 32, 13)  (  1, 32, 14)  (  1, 32, 14)  (  1, 33, 12)
  0  0.1522E-01  0  0.1252E-01  0  0.9099E-02  0  0.4885E-02  0  0.2484E-02
   (  1, 35, 11)  (  1, 35, 11)  (  1, 35, 11)  (  1, 35, 11)  (  1, 35, 11)
  0 -0.1519E-02  0  0.8549E-03  1 -0.1073E-01  0  0.9528E-02  0  0.7996E-02
   (  1, 32, 13)  (  1, 32, 14)  (  1, 33, 12)  (  1, 35, 11)  (  1, 35, 11)
  0  0.5691E-02  0  0.2942E-02  0  0.1580E-02  0 -0.9187E-03  0  0.5208E-03
   (  1, 35, 11)  (  1, 35, 11)  (  1, 35, 11)  (  1, 32, 13)  (  1, 32, 14)
  1 -0.6610E-02  0  0.5893E-02  0  0.4903E-02  0  0.3506E-02  0  0.1792E-02
   (  1, 33, 12)  (  1, 35, 11)  (  1, 35, 11)  (  1, 35, 11)  (  1, 35, 11)
  0  0.9669E-03  0 -0.5611E-03  1 -0.4100E-02  0  0.3672E-02  0  0.2906E-02
   (  1, 35, 11)  (  1, 32, 13)  (  1, 33, 12)  (  1, 35, 11)  (  1, 35, 11)
  0  0.2180E-02  0  0.1120E-02  1  0.3127E-02  0  0.2476E-02  0  0.1616E-02
   (  1, 35, 11)  (  1, 35, 11)  (  1, 34, 12)  (  1, 35, 11)  (  1, 35, 11)
  0  0.1370E-02  1  0.3986E-02  0  0.1789E-02  0  0.1253E-02  0  0.9607E-03
   (  1, 35, 11)  (  1, 34, 12)  (  1, 35, 11)  (  1, 35, 11)  (  1, 35, 11)
  1  0.2005E-02  0  0.1133E-02  0  0.9652E-03  1  0.2101E-02  0  0.6641E-03
   (  1, 34, 12)  (  1, 35, 11)  (  1, 35, 11)  (  1, 34, 12)  (  1, 35, 11)
  0  0.5727E-03  1  0.9050E-03  0  0.3730E-03  1  0.8622E-03
   (  1, 35, 11)  (  1, 34, 12)  (  1, 35, 11)  (  1, 34, 12)



 OUTPUT CONTROL FOR STRESS PERIOD    1   TIME STEP    1
    SAVE HEAD FOR ALL LAYERS
    SAVE BUDGET
 UBDSV2 SAVING "   CONSTANT HEAD" ON UNIT  53 AT TIME STEP  1, STRESS PERIOD   1
 UBDSV1 SAVING "FLOW RIGHT FACE " ON UNIT  53 AT TIME STEP  1, STRESS PERIOD   1
 UBDSV1 SAVING "FLOW FRONT FACE " ON UNIT  53 AT TIME STEP  1, STRESS PERIOD   1

 HEAD WILL BE SAVED ON UNIT   51 AT END OF TIME STEP    1, STRESS PERIOD    1
1
  VOLUMETRIC BUDGET FOR ENTIRE MODEL AT END OF TIME STEP    1, STRESS PERIOD   1
  ------------------------------------------------------------------------------

     CUMULATIVE VOLUMES      L**3       RATES FOR THIS TIME STEP      L**3/T
     ------------------                 ------------------------

           IN:                                      IN:
           ---                                      ---
             STORAGE =           0.0000               STORAGE =           0.0000
       CONSTANT HEAD =           0.0000         CONSTANT HEAD =           0.0000
               WELLS =           0.0000                 WELLS =           0.0000
       RIVER LEAKAGE =         677.8451         RIVER LEAKAGE =         677.8451
            RECHARGE =        5905.3232              RECHARGE =        5905.3232

            TOTAL IN =        6583.1685              TOTAL IN =        6583.1685

          OUT:                                     OUT:
          ----                                     ----
             STORAGE =           0.0000               STORAGE =           0.0000
       CONSTANT HEAD =         385.7611         CONSTANT HEAD =         385.7611
               WELLS =        1874.3583                 WELLS =        1874.3583
       RIVER LEAKAGE =        4323.1250         RIVER LEAKAGE =        4323.1250
            RECHARGE =           0.0000              RECHARGE =           0.0000

           TOTAL OUT =        6583.2441             TOTAL OUT =        6583.2441

            IN - OUT =      -7.5684E-02              IN - OUT =      -7.5684E-02

 PERCENT DISCREPANCY =          -0.00     PERCENT DISCREPANCY =          -0.00






         TIME SUMMARY AT END OF TIME STEP    1 IN STRESS PERIOD    1
                    SECONDS     MINUTES      HOURS       DAYS        YEARS
                    -----------------------------------------------------------
   TIME STEP LENGTH  86400.      1440.0      24.000      1.0000     2.73785E-03
 STRESS PERIOD TIME  86400.      1440.0      24.000      1.0000     2.73785E-03
         TOTAL TIME  86400.      1440.0      24.000      1.0000     2.73785E-03
1
 A TOTAL OF  17 HYDROGRAPH POINTS HAVE BEEN PREPARED.
1
                            STRESS PERIOD NO.    2, LENGTH =   1825.000    
                            -----------------------------------------------

                              NUMBER OF TIME STEPS =     1

                               MULTIPLIER FOR DELT =     1.000

                            INITIAL TIME STEP SIZE =   1825.000    

 WELL NO.  LAYER   ROW   COL   STRESS RATE         
 --------------------------------------------------
      1      1      9     16      -841.8    
      2      1     11     13      -456.2    
      3      1     20     14      -363.5    
      4      1     26     10      -96.74    
      5      1     29      6      -66.48    
      6      1     34     12      -493.4    

      6 WELLS

 REACH NO.  LAYER   ROW   COL     STAGE      CONDUCTANCE     BOTTOM EL.         
 -------------------------------------------------------------------------------
      1      1      1     15       20.29           6513.           20.00    
      2      1      2     15       19.81           4438.           19.75    
      3      1      3     15       20.10           6156.           19.50    
      4      1      4     15       19.37           5410.           19.25    
      5      1      5     15       19.21           6028.           19.00    
      6      1      6     15       18.97           5313.           18.75    
      7      1      7     15       18.81           3846.           18.50    
      8      1      8     15       18.43           5831.           18.25    
      9      1      9     15       18.58           4497.           18.00    
     10      1     10     15       19.07           4282.           17.75    
     11      1     11     15       17.64           5710.           17.50    
     12      1     12     15       17.46           3483.           17.25    
     13      1     13     15       17.53           4368.           17.00    
     14      1     14     15       17.35           4593.           16.75    
     15      1     15     15       16.87           5063.           16.50    
     16      1     16     15       16.89           2612.           16.25    
     17      1     17     15       16.31           4018.           16.00    
     18      1     18     15       16.11           5095.           15.75    
     19      1     19     15       16.09           5867.           15.50    
     20      1     20     15       15.61           2969.           15.25    
     21      1     21     15       15.30           2970.           15.00    
     22      1     22     15       15.28           4680.           14.75    
     23      1     23     15       15.05           4085.           14.50    
     24      1     24     15       15.21           4238.           14.25    
     25      1     25     15       14.74           5667.           14.00    
     26      1     26     15       14.44           4505.           13.75    
     27      1     27     15       14.35           4536.           13.50    
     28      1     28     15       13.63           4374.           13.25    
     29      1     29     15       13.78           5304.           13.00    
     30      1     30     15       13.71           4737.           12.75    
     31      1     31     15       13.39           4671.           12.50    
     32      1     32     15       12.99           4225.           12.25    
     33      1     33     15       12.89           3323.           12.00    
     34      1     34     15       12.53           3788.           11.75    
     35      1     35     15       12.32           3981.           11.50    
     36      1     36     15       12.11           6059.           11.25    
     37      1     37     15       11.89           5024.           11.00    
     38      1     38     15       11.64           4588.           10.75    
     39      1     39     15       11.37           3807.           10.50    
     40      1     40     15       11.57           3644.           10.25    

     40 RIVER REACHES

                 RECHARGE =  9.137383E-05

 SOLVING FOR HEAD 

 CELL CONVERSIONS FOR ITER.= 20  LAYER=  1  STEP=  1  PERIOD=   2   (ROW,COL)
    DRY( 34, 12)   


    30 CALLS TO PCG ROUTINE FOR TIME STEP   1 IN STRESS PERIOD    2
   199 TOTAL ITERATIONS

 MAXIMUM HEAD CHANGE FOR EACH ITERATION (1 INDICATES THE FIRST INNER ITERATION):

    HEAD CHANGE    HEAD CHANGE    HEAD CHANGE    HEAD CHANGE    HEAD CHANGE 
   LAYER,ROW,COL  LAYER,ROW,COL  LAYER,ROW,COL  LAYER,ROW,COL  LAYER,ROW,COL
 ---------------------------------------------------------------------------
  1   1.558      0  0.1804      0 -0.7154E-01  0 -0.9697E-02  0  0.2495E-02
   (  1,  2, 15)  (  1,  3, 13)  (  1,  1, 20)  (  1,  3,  7)  (  1,  2,  6)
  0  0.7103E-03  0  0.4043E-03  0  0.8596E-04  0 -0.1676E-04  0  0.4444E-05
   (  1,  8,  6)  (  1,  9,  4)  (  1,  8,  5)  (  1,  8,  5)  (  1, 29,  7)
  1 -0.6280      0  0.9338E-01  0  0.2425E-01  0  0.2957E-02  0  0.7866E-03
   (  1, 34, 12)  (  1, 34, 12)  (  1, 34, 12)  (  1, 35, 10)  (  1,  8,  5)
  0  0.3258E-03  0 -0.1100E-03  0  0.1954E-04  0 -0.4844E-05  1 -0.4457    
   (  1,  9,  4)  (  1,  9,  4)  (  1, 16, 10)  (  1,  5, 12)  (  1, 34, 12)
  0  0.5991E-01  0  0.1217E-01  0  0.1627E-02  0  0.3862E-03  0  0.1385E-03
   (  1, 34, 12)  (  1, 34, 12)  (  1, 35, 10)  (  1,  8,  5)  (  1, 33, 13)
  0 -0.3604E-04  0  0.7598E-05  1 -0.3125      0  0.2421E-01  0  0.3818E-02
   (  1,  9,  4)  (  1, 16, 10)  (  1, 34, 12)  (  1, 34, 12)  (  1, 34, 12)
  0  0.8886E-03  0  0.1894E-03  0  0.7611E-04  0 -0.1490E-04  0  0.4944E-05
   (  1, 35, 10)  (  1,  8,  5)  (  1, 33, 13)  (  1,  9,  4)  (  1, 31, 14)
  1 -0.2323      0 -0.1733E-01  0  0.2037E-02  0  0.3721E-03  0 -0.1296E-03
   (  1, 34, 12)  (  1, 35, 11)  (  1, 35, 10)  (  1, 35, 10)  (  1, 36, 10)
  0 -0.3291E-04  0  0.9420E-05  1 -0.1910      0 -0.1379E-01  0  0.1710E-02
   (  1, 36, 10)  (  1, 31, 14)  (  1, 34, 12)  (  1, 35, 11)  (  1, 35, 10)
  0 -0.2288E-03  0 -0.8557E-04  0 -0.1953E-04  0  0.6575E-05  1 -0.1666    
   (  1, 36, 10)  (  1, 36, 10)  (  1,  8,  5)  (  1, 31, 14)  (  1, 34, 12)
  0 -0.1180E-01  0  0.1472E-02  0 -0.2146E-03  0 -0.6169E-04  0  0.1547E-04
   (  1, 35, 11)  (  1, 35, 10)  (  1, 36, 10)  (  1, 36, 10)  (  1, 37,  5)
  0  0.4846E-05  1 -0.1517      0 -0.1057E-01  0  0.1311E-02  0 -0.1951E-03
   (  1, 31, 14)  (  1, 34, 12)  (  1, 35, 11)  (  1, 35, 10)  (  1, 36, 10)
  0 -0.5322E-04  0  0.1377E-04  0  0.4353E-05  1 -0.1437      0 -0.9840E-02
   (  1, 36, 10)  (  1, 37,  5)  (  1, 31, 14)  (  1, 34, 12)  (  1, 35, 11)
  0  0.1214E-02  0 -0.1819E-03  0 -0.4911E-04  0  0.1285E-04  0  0.4103E-05
   (  1, 35, 10)  (  1, 36, 10)  (  1, 36, 10)  (  1, 37,  5)  (  1, 31, 14)
  1 -0.1414      0 -0.9517E-02  0  0.1168E-02  0 -0.1759E-03  0 -0.4731E-04
   (  1, 34, 12)  (  1, 35, 11)  (  1, 35, 10)  (  1, 36, 10)  (  1, 36, 10)
  0  0.1247E-04  0  0.3977E-05  1 -0.1447      0 -0.9563E-02  0  0.1167E-02
   (  1, 37,  5)  (  1, 31, 14)  (  1, 34, 12)  (  1, 35, 11)  (  1, 35, 10)
  0 -0.1766E-03  0 -0.4740E-04  0  0.1259E-04  0  0.4006E-05  1 -0.1541    
   (  1, 36, 10)  (  1, 36, 10)  (  1, 37,  5)  (  1, 31, 14)  (  1, 34, 12)
  0 -0.9996E-02  0  0.1213E-02  0 -0.1846E-03  0 -0.4939E-04  0  0.1323E-04
   (  1, 35, 11)  (  1, 35, 10)  (  1, 36, 10)  (  1, 36, 10)  (  1, 37,  5)
  0  0.4198E-05  1 -0.1717      0 -0.1090E-01  0  0.1314E-02  0 -0.2012E-03
   (  1, 31, 14)  (  1, 34, 12)  (  1, 35, 11)  (  1, 35, 10)  (  1, 36, 10)
  0 -0.5364E-04  0  0.1450E-04  0  0.4591E-05  1 -0.2013      0 -0.1247E-01
   (  1, 36, 10)  (  1, 37,  5)  (  1, 31, 14)  (  1, 34, 12)  (  1, 35, 11)
  0  0.1491E-02  0 -0.2299E-03  0 -0.6101E-04  0  0.1667E-04  0  0.5264E-05
   (  1, 35, 10)  (  1, 36, 10)  (  1, 36, 10)  (  1, 37,  5)  (  1, 31, 14)
  1 -0.2510      0 -0.1508E-01  0  0.1784E-02  0 -0.2780E-03  0 -0.7322E-04
   (  1, 34, 12)  (  1, 35, 11)  (  1, 35, 10)  (  1, 36, 10)  (  1, 36, 10)
  0  0.2028E-04  0  0.6384E-05  1 -0.3392      0 -0.1956E-01  0  0.2277E-02
   (  1, 37,  5)  (  1, 31, 14)  (  1, 34, 12)  (  1, 35, 11)  (  1, 35, 10)
  0 -0.3605E-03  0 -0.9385E-04  0  0.2649E-04  0  0.8305E-05  1 -0.5144    
   (  1, 36, 10)  (  1, 36, 10)  (  1, 37,  5)  (  1, 31, 14)  (  1, 34, 12)
  0 -0.2791E-01  0  0.3182E-02  0 -0.5143E-03  0 -0.1312E-03  0  0.3808E-04
   (  1, 35, 11)  (  1, 34, 10)  (  1, 36, 10)  (  1, 36, 10)  (  1, 37,  5)
  0  0.1187E-04  0  0.1436E-05  1 -0.9441      0 -0.4600E-01  0  0.5375E-02
   (  1, 31, 14)  (  1, 37, 10)  (  1, 34, 12)  (  1, 35, 11)  (  1, 34, 10)
  0 -0.8492E-03  0 -0.2075E-03  0  0.6333E-04  0  0.1953E-04  0  0.2428E-05
   (  1, 36, 10)  (  1, 36, 10)  (  1, 37,  5)  (  1, 31, 14)  (  1, 37, 10)
  1  -2.650      0 -0.9775E-01  0  0.1189E-01  0 -0.1837E-02  0 -0.3998E-03
   (  1, 34, 12)  (  1, 35, 11)  (  1, 34, 10)  (  1, 36, 10)  (  1, 36, 10)
  0  0.1349E-03  0  0.4048E-04  0  0.5853E-05  1   1.501      0  0.1538    
   (  1, 37,  5)  (  1, 31, 14)  (  1, 37, 10)  (  1, 34, 11)  (  1, 36, 10)
  0  0.2371E-01  0 -0.3287E-02  0  0.1035E-02  0 -0.3199E-03  0  0.9715E-04
   (  1, 37,  5)  (  1, 35, 13)  (  1, 32,  1)  (  1, 38, 11)  (  1, 39, 13)
  0  0.2632E-04  0  0.5486E-05  1  0.4552      0  0.4991E-01  0  0.7114E-02
   (  1, 39, 13)  (  1, 37, 13)  (  1, 33, 12)  (  1, 36, 10)  (  1, 37,  5)
  0 -0.1221E-02  0  0.3778E-03  0 -0.1075E-03  0  0.3222E-04  0  0.9709E-05
   (  1, 35,  4)  (  1, 32,  1)  (  1, 38, 11)  (  1, 39, 13)  (  1, 39, 13)
  1  0.1385      0  0.1544E-01  0  0.2045E-02  0 -0.4050E-03  0 -0.1229E-03
   (  1, 33, 12)  (  1, 36, 10)  (  1, 37,  5)  (  1, 35,  4)  (  1, 38, 12)
  0 -0.3336E-04  0  0.1024E-04  0  0.3378E-05  1  0.4189E-01  0  0.4693E-02
   (  1, 38, 11)  (  1, 39, 13)  (  1, 39, 13)  (  1, 33, 12)  (  1, 36, 10)
  0  0.5768E-03  0 -0.1281E-03  0 -0.4070E-04  0 -0.1009E-04  0 -0.3270E-05
   (  1, 37,  5)  (  1, 35,  4)  (  1, 38, 12)  (  1, 38, 11)  (  1, 32,  1)
  1  0.1261E-01  0  0.1412E-02  0 -0.1639E-03  0 -0.4081E-04  0 -0.1319E-04
   (  1, 33, 12)  (  1, 36, 10)  (  1, 33,  8)  (  1, 34,  3)  (  1, 38, 12)
  0 -0.3010E-05  1  0.3778E-02  0  0.4257E-03  0 -0.5338E-04  0 -0.1265E-04
   (  1, 38, 11)  (  1, 33, 12)  (  1, 35, 10)  (  1, 33,  8)  (  1, 34,  3)
  0 -0.4228E-05  1  0.1127E-02  0  0.1289E-03  0 -0.1733E-04  0 -0.4008E-05
   (  1, 38, 12)  (  1, 33, 12)  (  1, 35, 10)  (  1, 33,  8)  (  1, 34,  3)
  1  0.3341E-03  0  0.3873E-04  0 -0.5314E-05  1  0.9938E-04  0 -0.1202E-04
   (  1, 33, 12)  (  1, 35, 10)  (  1, 33,  8)  (  1, 33, 12)  (  1, 33, 11)
  0 -0.1735E-05  1  0.2944E-04  0 -0.3838E-05  1  0.8999E-05
   (  1, 35, 14)  (  1, 34, 13)  (  1, 33, 11)  (  1, 33, 12)

 MAXIMUM RESIDUAL FOR EACH ITERATION (1 INDICATES THE FIRST INNER ITERATION):

    RESIDUAL       RESIDUAL       RESIDUAL       RESIDUAL       RESIDUAL    
   LAYER,ROW,COL  LAYER,ROW,COL  LAYER,ROW,COL  LAYER,ROW,COL  LAYER,ROW,COL
 ---------------------------------------------------------------------------
  1   124.9      0  -18.89      0   4.723      0  -1.241      0 -0.2950    
   (  1, 11, 15)  (  1,  3, 14)  (  1,  3, 13)  (  1,  4, 13)  (  1,  4, 13)
  0  0.9779E-01  0 -0.3808E-01  0  0.8714E-02  0 -0.2462E-02  0 -0.7792E-03
   (  1,  4, 12)  (  1,  5, 12)  (  1,  5, 11)  (  1,  6, 11)  (  1,  6, 11)
  1   29.51      0   6.661      0   1.297      0  0.4160      0  0.1523    
   (  1,  2, 15)  (  1,  3, 14)  (  1,  3, 14)  (  1,  4, 13)  (  1,  4, 13)
  0  0.3481E-01  0  0.1339E-01  0  0.3455E-02  0 -0.7351E-03  1   21.49    
   (  1,  4, 13)  (  1,  5, 12)  (  1,  5, 12)  (  1,  5, 11)  (  1,  2, 15)
  0   2.849      0  0.4326      0  0.1247      0  0.4784E-01  0  0.1088E-01
   (  1,  2, 15)  (  1,  2, 15)  (  1,  4, 13)  (  1,  4, 13)  (  1,  4, 13)
  0  0.3990E-02  0  0.1023E-02  1   17.10      0   2.298      0  0.4791    
   (  1,  5, 12)  (  1,  5, 12)  (  1,  2, 15)  (  1,  2, 15)  (  1,  2, 15)
  0  0.1201      0  0.3078E-01  0  0.6270E-02  0  0.1598E-02  0  0.3808E-03
   (  1,  2, 15)  (  1,  2, 15)  (  1,  2, 15)  (  1,  2, 15)  (  1, 31, 15)
  1   7.725      0   1.275      0  0.3145      0  0.9696E-01  0  0.2718E-01
   (  1,  2, 15)  (  1,  2, 15)  (  1,  2, 15)  (  1,  2, 15)  (  1,  2, 15)
  0  0.6906E-02  0  0.2048E-02  1   2.495      0  0.4474      0  0.1118    
   (  1,  2, 15)  (  1,  2, 15)  (  1,  2, 15)  (  1,  2, 15)  (  1,  2, 15)
  0  0.3443E-01  0  0.1033E-01  0  0.3034E-02  0  0.1014E-02  1   1.377    
   (  1,  2, 15)  (  1,  2, 15)  (  1,  2, 15)  (  1,  2, 15)  (  1, 35, 11)
  0 -0.2036      0  0.5151E-01  0  0.1564E-01  0 -0.3746E-02  0  0.1256E-02
   (  1, 35, 10)  (  1, 32, 14)  (  1, 32, 14)  (  1, 31, 14)  (  1, 37,  9)
  0  0.5003E-03  1   1.233      0 -0.1808      0  0.4638E-01  0  0.1355E-01
   (  1, 31, 15)  (  1, 35, 11)  (  1, 35, 10)  (  1, 32, 14)  (  1, 32, 14)
  0 -0.3250E-02  0  0.1041E-02  0  0.3583E-03  1   1.147      0 -0.1673    
   (  1, 31, 14)  (  1, 37,  9)  (  1, 31, 15)  (  1, 35, 11)  (  1, 35, 10)
  0  0.4341E-01  0  0.1254E-01  0 -0.3027E-02  0  0.9600E-03  0  0.3168E-03
   (  1, 32, 14)  (  1, 32, 14)  (  1, 31, 14)  (  1, 37,  9)  (  1, 31, 15)
  1   1.108      0 -0.1609      0  0.4218E-01  0  0.1210E-01  0 -0.2936E-02
   (  1, 35, 11)  (  1, 35, 10)  (  1, 32, 14)  (  1, 32, 14)  (  1, 31, 14)
  0  0.9270E-03  0  0.3061E-03  1   1.112      0 -0.1607      0  0.4257E-01
   (  1, 37,  9)  (  1, 31, 15)  (  1, 35, 11)  (  1, 35, 10)  (  1, 32, 14)
  0  0.1214E-01  0 -0.2960E-02  0  0.9303E-03  0  0.3080E-03  1   1.161    
   (  1, 32, 14)  (  1, 31, 14)  (  1, 37,  9)  (  1, 31, 15)  (  1, 35, 11)
  0 -0.1670      0  0.4469E-01  0  0.1267E-01  0 -0.3105E-02  0  0.9729E-03
   (  1, 35, 10)  (  1, 32, 14)  (  1, 32, 14)  (  1, 31, 14)  (  1, 31, 15)
  0  0.3225E-03  1   1.264      0 -0.1809      0  0.4897E-01  0  0.1379E-01
   (  1, 31, 15)  (  1, 35, 11)  (  1, 35, 10)  (  1, 32, 14)  (  1, 32, 14)
  0 -0.3397E-02  0  0.1064E-02  0  0.3524E-03  1   1.443      0 -0.2051    
   (  1, 31, 14)  (  1, 31, 15)  (  1, 31, 15)  (  1, 35, 11)  (  1, 35, 10)
  0  0.5630E-01  0  0.1572E-01  0 -0.3900E-02  0  0.1221E-02  0  0.4036E-03
   (  1, 32, 14)  (  1, 32, 14)  (  1, 31, 14)  (  1, 31, 15)  (  1, 31, 15)
  1   1.740      0 -0.2452      0  0.6851E-01  0  0.1892E-01  0 -0.4736E-02
   (  1, 35, 11)  (  1, 35, 10)  (  1, 32, 14)  (  1, 32, 14)  (  1, 31, 14)
  0  0.1482E-02  0  0.4887E-03  1   2.250      0 -0.3130      0  0.8958E-01
   (  1, 31, 15)  (  1, 31, 15)  (  1, 35, 11)  (  1, 35, 10)  (  1, 32, 14)
  0  0.2435E-01  0 -0.6173E-02  0  0.1931E-02  0  0.6346E-03  1   3.191    
   (  1, 32, 14)  (  1, 31, 14)  (  1, 31, 15)  (  1, 31, 15)  (  1, 35, 11)
  0 -0.4350      0  0.1292      0  0.3426E-01  0 -0.8855E-02  0  0.2766E-02
   (  1, 35, 10)  (  1, 32, 14)  (  1, 32, 14)  (  1, 31, 14)  (  1, 31, 15)
  0  0.9058E-03  0  0.3245E-03  1   5.197      0 -0.6798      0  0.2165    
   (  1, 31, 15)  (  1, 31, 15)  (  1, 35, 11)  (  1, 35, 10)  (  1, 32, 14)
  0  0.5488E-01  0 -0.1468E-01  0  0.4576E-02  0  0.1494E-02  0  0.5299E-03
   (  1, 32, 14)  (  1, 31, 14)  (  1, 31, 15)  (  1, 31, 15)  (  1, 31, 15)
  1   10.71      0   1.328      0  0.4775      0  0.1103      0 -0.3126E-01
   (  1, 35, 11)  (  1, 35, 11)  (  1, 32, 14)  (  1, 32, 14)  (  1, 31, 14)
  0  0.9801E-02  0  0.3292E-02  0  0.1191E-02  1  -14.09      0  -2.806    
   (  1, 31, 15)  (  1, 31, 15)  (  1, 31, 15)  (  1, 32, 13)  (  1, 33, 15)
  0  -1.054      0 -0.3385      0 -0.8827E-01  0 -0.2771E-01  0 -0.9363E-02
   (  1, 31, 15)  (  1, 31, 15)  (  1, 30, 15)  (  1, 30, 15)  (  1, 30, 15)
  0 -0.3152E-02  0 -0.9956E-03  1  -4.744      0 -0.9943      0 -0.3508    
   (  1, 30, 15)  (  1, 30, 15)  (  1, 32, 13)  (  1, 33, 15)  (  1, 31, 15)
  0 -0.1184      0 -0.2817E-01  0 -0.8766E-02  0 -0.3063E-02  0 -0.1044E-02
   (  1, 31, 15)  (  1, 31, 15)  (  1, 30, 15)  (  1, 30, 15)  (  1, 30, 15)
  1  -1.485      0 -0.3399      0 -0.1126      0 -0.3883E-01  0 -0.9130E-02
   (  1, 32, 13)  (  1, 33, 15)  (  1, 31, 15)  (  1, 31, 15)  (  1, 31, 15)
  0 -0.2918E-02  0 -0.1013E-02  0 -0.3249E-03  1 -0.4550      0 -0.1143    
   (  1, 32, 15)  (  1, 32, 15)  (  1, 32, 15)  (  1, 32, 13)  (  1, 33, 15)
  0 -0.3548E-01  0 -0.1237E-01  0 -0.2914E-02  0 -0.9621E-03  0 -0.3318E-03
   (  1, 31, 15)  (  1, 31, 15)  (  1, 31, 15)  (  1, 32, 15)  (  1, 32, 15)
  1  0.1406      0 -0.3798E-01  0 -0.1142E-01  0 -0.3874E-02  0 -0.9254E-03
   (  1, 33, 11)  (  1, 33, 15)  (  1, 33, 15)  (  1, 31, 15)  (  1, 32, 15)
  0 -0.3135E-03  1  0.4382E-01  0 -0.1252E-01  0 -0.3781E-02  0 -0.1201E-02
   (  1, 32, 15)  (  1, 33, 11)  (  1, 33, 15)  (  1, 33, 15)  (  1, 31, 15)
  0 -0.2990E-03  1  0.1363E-01  0 -0.4105E-02  0 -0.1224E-02  0 -0.3702E-03
   (  1, 32, 15)  (  1, 33, 11)  (  1, 33, 15)  (  1, 33, 15)  (  1, 33, 15)
  1  0.4242E-02  0 -0.1347E-02  0 -0.4340E-03  1  0.1343E-02  0 -0.4344E-03
   (  1, 33, 11)  (  1, 33, 15)  (  1, 33, 15)  (  1, 33, 11)  (  1, 33, 15)
  0 -0.1144E-03  1  0.4218E-03  0 -0.1394E-03  1 -0.1516E-03
   (  1, 33, 15)  (  1, 33, 11)  (  1, 33, 15)  (  1, 33, 15)



 OUTPUT CONTROL FOR STRESS PERIOD    2   TIME STEP    1
    SAVE HEAD FOR ALL LAYERS
    SAVE BUDGET
 UBDSV1 SAVING "         STORAGE" ON UNIT  53 AT TIME STEP  1, STRESS PERIOD   2
 UBDSV2 SAVING "   CONSTANT HEAD" ON UNIT  53 AT TIME STEP  1, STRESS PERIOD   2
 UBDSV1 SAVING "FLOW RIGHT FACE " ON UNIT  53 AT TIME STEP  1, STRESS PERIOD   2
 UBDSV1 SAVING "FLOW FRONT FACE " ON UNIT  53 AT TIME STEP  1, STRESS PERIOD   2

 HEAD WILL BE SAVED ON UNIT   51 AT END OF TIME STEP    1, STRESS PERIOD    2
1
  VOLUMETRIC BUDGET FOR ENTIRE MODEL AT END OF TIME STEP    1, STRESS PERIOD   2
  ------------------------------------------------------------------------------

     CUMULATIVE VOLUMES      L**3       RATES FOR THIS TIME STEP      L**3/T
     ------------------                 ------------------------

           IN:                                      IN:
           ---                                      ---
             STORAGE =     2169599.7500               STORAGE =        1188.8218
       CONSTANT HEAD =         787.5696         CONSTANT HEAD =           0.4315
               WELLS =           0.0000                 WELLS =           0.0000
       RIVER LEAKAGE =     1293723.0000         RIVER LEAKAGE =         708.5179
            RECHARGE =     7239001.0000              RECHARGE =        3963.3401

            TOTAL IN =    10703111.0000              TOTAL IN =        5861.1113

          OUT:                                     OUT:
          ----                                     ----
             STORAGE =      369494.0625               STORAGE =         202.4625
       CONSTANT HEAD =      644988.0000         CONSTANT HEAD =         353.2067
               WELLS =     3332026.0000                 WELLS =        1824.7407
       RIVER LEAKAGE =     6356708.0000         RIVER LEAKAGE =        3480.7588
            RECHARGE =           0.0000              RECHARGE =           0.0000

           TOTAL OUT =    10703216.0000             TOTAL OUT =        5861.1689

            IN - OUT =        -105.0000              IN - OUT =      -5.7617E-02

 PERCENT DISCREPANCY =          -0.00     PERCENT DISCREPANCY =          -0.00






         TIME SUMMARY AT END OF TIME STEP    1 IN STRESS PERIOD    2
                    SECONDS     MINUTES      HOURS       DAYS        YEARS
                    -----------------------------------------------------------
   TIME STEP LENGTH 1.57680E+08 2.62800E+06  43800.      1825.0      4.9966    
 STRESS PERIOD TIME 1.57680E+08 2.62800E+06  43800.      1825.0      4.9966    
         TOTAL TIME 1.57766E+08 2.62944E+06  43824.      1826.0      4.9993    
1
1
                            STRESS PERIOD NO.    3, LENGTH =   1.000000    
                            -----------------------------------------------

                              NUMBER OF TIME STEPS =     1

                               MULTIPLIER FOR DELT =     1.000

                            INITIAL TIME STEP SIZE =   1.000000    

 WELL NO.  LAYER   ROW   COL   STRESS RATE         
 --------------------------------------------------
      1      1      9     16      -866.8    
      2      1     11     13      -425.7    
      3      1     20     14      -437.3    
      4      1     26     10      -83.07    
      5      1     29      6      -72.97    
      6      1     34     12      -441.3    

      6 WELLS

 REACH NO.  LAYER   ROW   COL     STAGE      CONDUCTANCE     BOTTOM EL.         
 -------------------------------------------------------------------------------
      1      1      1     15       20.42           4787.           20.00    
      2      1      2     15       19.91           4742.           19.75    
      3      1      3     15       19.99           5492.           19.50    
      4      1      4     15       19.27           1590.           19.25    
      5      1      5     15       19.50           5637.           19.00    
      6      1      6     15       18.58           4406.           18.75    
      7      1      7     15       18.81           4429.           18.50    
      8      1      8     15       18.60           4888.           18.25    
      9      1      9     15       18.71           4226.           18.00    
     10      1     10     15       18.93           4330.           17.75    
     11      1     11     15       17.91           3504.           17.50    
     12      1     12     15       17.57           3366.           17.25    
     13      1     13     15       17.23           5567.           17.00    
     14      1     14     15       17.37           3705.           16.75    
     15      1     15     15       16.84           4087.           16.50    
     16      1     16     15       16.80           4525.           16.25    
     17      1     17     15       16.32           2765.           16.00    
     18      1     18     15       16.30           4262.           15.75    
     19      1     19     15       16.15           4252.           15.50    
     20      1     20     15       16.09           5690.           15.25    
     21      1     21     15       15.51           6752.           15.00    
     22      1     22     15       15.36           4245.           14.75    
     23      1     23     15       15.26           4470.           14.50    
     24      1     24     15       15.14           3963.           14.25    
     25      1     25     15       14.67           3235.           14.00    
     26      1     26     15       14.65           3558.           13.75    
     27      1     27     15       14.23           921.2           13.50    
     28      1     28     15       13.87           3187.           13.25    
     29      1     29     15       13.77           4690.           13.00    
     30      1     30     15       13.55           3804.           12.75    
     31      1     31     15       13.21           3628.           12.50    
     32      1     32     15       13.12           4877.           12.25    
     33      1     33     15       12.89           3463.           12.00    
     34      1     34     15       12.61           4895.           11.75    
     35      1     35     15       12.35           5345.           11.50    
     36      1     36     15       12.11           4571.           11.25    
     37      1     37     15       12.03           3408.           11.00    
     38      1     38     15       11.48           5125.           10.75    
     39      1     39     15       11.74           3453.           10.50    
     40      1     40     15       11.44           5151.           10.25    

     40 RIVER REACHES

 REUSING RECH FROM LAST STRESS PERIOD

 SOLVING FOR HEAD 


    12 CALLS TO PCG ROUTINE FOR TIME STEP   1 IN STRESS PERIOD    3
   138 TOTAL ITERATIONS

 MAXIMUM HEAD CHANGE FOR EACH ITERATION (1 INDICATES THE FIRST INNER ITERATION):

    HEAD CHANGE    HEAD CHANGE    HEAD CHANGE    HEAD CHANGE    HEAD CHANGE 
   LAYER,ROW,COL  LAYER,ROW,COL  LAYER,ROW,COL  LAYER,ROW,COL  LAYER,ROW,COL
 ---------------------------------------------------------------------------
  1  -2.311      0  -2.029      0  0.7063      0  0.3741      0  0.3837    
   (  1,  9,  4)  (  1,  8,  5)  (  1,  8,  5)  (  1, 36,  8)  (  1, 30,  7)
  0  0.1387      0  0.1304      0  0.5749E-01  0 -0.2657E-01  0 -0.1068E-01
   (  1, 27,  8)  (  1, 31,  5)  (  1, 33, 12)  (  1, 33, 12)  (  1, 33, 12)
  0 -0.5728E-02  0 -0.3216E-02  0  0.2345E-02  0  0.1504E-02  0 -0.6121E-03
   (  1, 36, 10)  (  1,  9,  4)  (  1, 15,  3)  (  1, 33,  2)  (  1, 33, 12)
  0 -0.2538E-03  0  0.1439E-03  0  0.5912E-04  0 -0.3170E-04  0  0.1338E-04
   (  1, 34, 11)  (  1, 34, 10)  (  1, 30,  6)  (  1, 31,  7)  (  1, 37, 12)
  0 -0.1035E-04  0  0.7204E-05  1 -0.7814      0 -0.3420      0  0.1359    
   (  1,  9,  4)  (  1, 10,  2)  (  1,  6, 15)  (  1,  9,  4)  (  1, 29,  7)
  0  0.1366      0  0.4273E-01  0  0.2777E-01  0 -0.1990E-01  0  0.1306E-01
   (  1,  7,  3)  (  1, 32,  9)  (  1, 32,  6)  (  1, 34, 11)  (  1, 30,  7)
  0 -0.1091E-01  0  0.3129E-02  0 -0.2168E-02  0  0.1174E-02  0  0.5397E-03
   (  1, 33, 12)  (  1, 27,  8)  (  1, 34, 11)  (  1, 35, 10)  (  1,  9,  4)
  0 -0.3340E-03  0 -0.2216E-03  0 -0.7026E-04  0 -0.2896E-04  0  0.1277E-04
   (  1,  9,  4)  (  1, 32,  1)  (  1, 30,  6)  (  1, 11, 10)  (  1, 18,  2)
  0 -0.6421E-05  1  0.2704      0 -0.1880      0 -0.1245      0  0.4929E-01
   (  1, 37, 19)  (  1,  9,  4)  (  1,  9,  4)  (  1,  8,  5)  (  1, 29,  7)
  0 -0.2466E-01  0  0.1764E-01  0 -0.6981E-02  0  0.4011E-02  0 -0.2205E-02
   (  1, 30,  7)  (  1, 34, 11)  (  1, 33,  8)  (  1, 30,  5)  (  1, 33, 12)
  0  0.8614E-03  0  0.5061E-03  0 -0.3434E-03  0  0.2252E-03  0 -0.9546E-04
   (  1,  2,  7)  (  1, 33, 12)  (  1,  9,  4)  (  1, 34, 10)  (  1, 34, 10)
  0  0.4065E-04  0 -0.2138E-04  0 -0.8688E-05  1  0.9361E-01  0 -0.5799E-01
   (  1,  9,  8)  (  1, 31,  6)  (  1, 11, 11)  (  1,  9,  4)  (  1,  9,  4)
  0 -0.4062E-01  0  0.1432E-01  0 -0.8257E-02  0  0.5322E-02  0 -0.2345E-02
   (  1,  8,  5)  (  1, 29,  7)  (  1, 30,  7)  (  1, 34, 11)  (  1, 33,  8)
  0 -0.1176E-02  0  0.4933E-03  0 -0.3371E-03  0  0.1454E-03  0  0.1486E-03
   (  1,  8, 10)  (  1, 24,  3)  (  1, 33,  8)  (  1, 26,  8)  (  1,  9,  4)
  0  0.7379E-04  0  0.4246E-04  0 -0.2634E-04  0  0.7282E-05  1 -0.2784E-01
   (  1,  3,  3)  (  1, 34, 11)  (  1, 34, 11)  (  1,  9,  8)  (  1,  6, 15)
  0 -0.1616E-01  0 -0.8376E-02  0 -0.4649E-02  0 -0.2513E-02  0  0.1719E-02
   (  1,  9,  4)  (  1,  8,  5)  (  1,  9,  4)  (  1, 30,  7)  (  1, 31,  6)
  0 -0.7988E-03  0  0.4326E-03  0 -0.2249E-03  0 -0.1164E-03  0  0.5717E-04
   (  1, 33,  8)  (  1,  5,  1)  (  1,  8,  4)  (  1, 27,  8)  (  1,  2,  8)
  0  0.2863E-04  0  0.2136E-04  0  0.1214E-04  0 -0.6990E-05  1 -0.9849E-02
   (  1,  3,  3)  (  1,  9,  4)  (  1, 34, 11)  (  1, 34, 11)  (  1,  6, 15)
  0  0.3938E-02  0 -0.3029E-02  0  0.1274E-02  0 -0.7253E-03  0  0.5280E-03
   (  1,  9,  4)  (  1,  9,  4)  (  1, 29,  7)  (  1, 30,  7)  (  1, 31,  6)
  0 -0.2913E-03  0  0.1777E-03  0 -0.1130E-03  0  0.4594E-04  0  0.1866E-04
   (  1, 33,  8)  (  1,  5,  1)  (  1,  8,  4)  (  1,  6,  1)  (  1,  2,  8)
  0  0.9189E-05  1 -0.3206E-02  0  0.1927E-02  0 -0.8261E-03  0  0.4106E-03
   (  1,  3,  3)  (  1,  6, 15)  (  1,  9,  4)  (  1, 30,  9)  (  1, 29,  7)
  0 -0.2419E-03  0  0.1608E-03  0 -0.9142E-04  0 -0.5560E-04  0  0.3227E-04
   (  1,  7, 14)  (  1, 30,  6)  (  1, 33,  8)  (  1,  9,  4)  (  1,  6,  1)
  0 -0.1209E-04  0  0.6068E-05  1 -0.1078E-02  0  0.7038E-03  0 -0.2405E-03
   (  1,  4,  1)  (  1,  8,  5)  (  1,  6, 15)  (  1,  9,  4)  (  1, 28,  8)
  0  0.1295E-03  0 -0.1094E-03  0  0.8099E-04  0 -0.2104E-04  0  0.1519E-04
   (  1, 29,  7)  (  1,  8,  5)  (  1,  5,  2)  (  1, 32,  6)  (  1, 33,  8)
  0 -0.7044E-05  1 -0.3869E-03  0  0.2255E-03  0  0.6165E-04  0 -0.4413E-04
   (  1, 30,  7)  (  1,  6, 15)  (  1,  9,  4)  (  1,  8,  5)  (  1,  7, 14)
  0 -0.3570E-04  0  0.2304E-04  0  0.9923E-05  1 -0.1332E-03  0  0.7332E-04
   (  1,  8,  5)  (  1,  5,  2)  (  1, 30,  7)  (  1,  6, 15)  (  1,  9,  4)
  0  0.2716E-04  0 -0.1703E-04  0 -0.2024E-04  0  0.5238E-05  1 -0.4434E-04
   (  1,  8,  5)  (  1, 34, 11)  (  1,  6,  2)  (  1, 27,  8)  (  1,  6, 15)
  0  0.2192E-04  0  0.9826E-05  1 -0.7372E-05
   (  1,  9,  4)  (  1,  8,  5)  (  1, 30,  7)

 MAXIMUM RESIDUAL FOR EACH ITERATION (1 INDICATES THE FIRST INNER ITERATION):

    RESIDUAL       RESIDUAL       RESIDUAL       RESIDUAL       RESIDUAL    
   LAYER,ROW,COL  LAYER,ROW,COL  LAYER,ROW,COL  LAYER,ROW,COL  LAYER,ROW,COL
 ---------------------------------------------------------------------------
  1  -1536.      0  -836.0      0  -341.1      0  -169.9      0  -81.58    
   (  1, 20, 15)  (  1, 20, 15)  (  1, 20, 15)  (  1, 20, 15)  (  1, 20, 15)
  0  -41.86      0  -19.79      0  -7.852      0  -2.788      0  -1.273    
   (  1, 20, 15)  (  1, 20, 15)  (  1, 20, 15)  (  1, 20, 15)  (  1, 20, 15)
  0 -0.5457      0 -0.4099      0  0.1779      0  0.1031      0  0.4179E-01
   (  1, 20, 15)  (  1, 20, 15)  (  1,  8, 13)  (  1,  8, 13)  (  1,  8, 13)
  0  0.2153E-01  0 -0.1058E-01  0 -0.5290E-02  0 -0.3875E-02  0 -0.1960E-02
   (  1,  8, 13)  (  1, 21, 15)  (  1, 21, 15)  (  1, 21, 15)  (  1, 21, 15)
  0  0.1653E-02  0  0.8785E-03  1  -176.4      0  -143.3      0  -75.10    
   (  1,  5, 15)  (  1,  5, 15)  (  1, 20, 15)  (  1, 20, 15)  (  1, 20, 15)
  0  -34.39      0  -17.49      0  -10.63      0  -5.084      0  -3.267    
   (  1, 20, 15)  (  1, 20, 15)  (  1, 20, 15)  (  1, 20, 15)  (  1, 20, 15)
  0  -1.768      0 -0.8192      0 -0.3799      0 -0.1643      0 -0.1328    
   (  1, 20, 15)  (  1, 20, 15)  (  1, 20, 15)  (  1, 20, 15)  (  1, 20, 15)
  0 -0.6778E-01  0  0.3460E-01  0  0.1493E-01  0 -0.5443E-02  0 -0.2043E-02
   (  1, 20, 15)  (  1,  9, 12)  (  1,  9, 12)  (  1, 20, 15)  (  1, 20, 15)
  0  0.9775E-03  1  -96.73      0  -51.73      0  -30.70      0  -17.87    
   (  1, 10, 11)  (  1, 20, 15)  (  1, 20, 15)  (  1, 20, 15)  (  1, 20, 15)
  0  -9.121      0  -4.862      0  -3.013      0  -1.241      0 -0.5677    
   (  1, 20, 15)  (  1, 20, 15)  (  1, 20, 15)  (  1, 20, 15)  (  1, 20, 15)
  0 -0.2185      0 -0.1022      0 -0.7637E-01  0 -0.3932E-01  0 -0.1946E-01
   (  1, 20, 15)  (  1, 20, 15)  (  1, 20, 15)  (  1, 20, 15)  (  1, 20, 15)
  0  0.9637E-02  0  0.4386E-02  0 -0.1891E-02  1  -26.28      0  -15.91    
   (  1,  9, 12)  (  1,  9, 12)  (  1, 20, 15)  (  1, 20, 15)  (  1, 20, 15)
  0  -9.504      0  -5.826      0  -2.928      0  -1.670      0 -0.9595    
   (  1, 20, 15)  (  1, 20, 15)  (  1, 20, 15)  (  1, 20, 15)  (  1, 20, 15)
  0 -0.4280      0 -0.1995      0  0.9095E-01  0 -0.4571E-01  0 -0.3574E-01
   (  1, 20, 15)  (  1, 20, 15)  (  1,  8, 13)  (  1, 20, 15)  (  1, 20, 15)
  0 -0.1641E-01  0 -0.7846E-02  0  0.4055E-02  0  0.1696E-02  1  -5.860    
   (  1, 20, 15)  (  1, 20, 15)  (  1,  9, 12)  (  1,  9, 12)  (  1, 20, 15)
  0  -3.785      0  -2.822      0  -1.691      0 -0.8728      0 -0.5160    
   (  1, 20, 15)  (  1, 20, 15)  (  1, 20, 15)  (  1, 20, 15)  (  1, 20, 15)
  0 -0.2922      0 -0.1419      0  0.7183E-01  0  0.3511E-01  0 -0.1539E-01
   (  1, 20, 15)  (  1, 20, 15)  (  1,  8, 13)  (  1,  8, 13)  (  1, 20, 15)
  0 -0.6475E-02  0 -0.5342E-02  0 -0.2708E-02  0  0.1431E-02  1  -1.659    
   (  1, 20, 15)  (  1, 20, 15)  (  1, 20, 15)  (  1,  9, 12)  (  1, 20, 15)
  0  -1.185      0 -0.8367      0  0.5069      0  0.2584      0 -0.1503    
   (  1, 20, 15)  (  1, 20, 15)  (  1,  7, 14)  (  1,  7, 14)  (  1, 20, 15)
  0 -0.8259E-01  0 -0.4353E-01  0  0.2514E-01  0  0.1209E-01  0  0.4988E-02
   (  1, 20, 15)  (  1, 20, 15)  (  1,  8, 13)  (  1,  8, 13)  (  1,  8, 13)
  0 -0.2319E-02  1 -0.5406      0 -0.3517      0  0.2614      0  0.1658    
   (  1, 20, 15)  (  1, 20, 15)  (  1, 20, 15)  (  1,  7, 14)  (  1,  7, 14)
  0  0.7608E-01  0 -0.4189E-01  0 -0.2293E-01  0  0.1186E-01  0  0.7344E-02
   (  1,  7, 14)  (  1, 20, 15)  (  1, 20, 15)  (  1,  8, 13)  (  1,  8, 13)
  0  0.3744E-02  0  0.1594E-02  1  0.1768      0  0.1059      0  0.8946E-01
   (  1,  8, 13)  (  1,  8, 13)  (  1,  6, 15)  (  1,  7, 14)  (  1,  7, 14)
  0  0.5478E-01  0  0.2632E-01  0 -0.9747E-02  0 -0.5639E-02  0  0.4113E-02
   (  1,  7, 14)  (  1,  7, 14)  (  1, 20, 15)  (  1, 20, 15)  (  1,  8, 13)
  0  0.2882E-02  1  0.5302E-01  0  0.3748E-01  0  0.3099E-01  0  0.1711E-01
   (  1,  8, 13)  (  1,  6, 15)  (  1,  7, 14)  (  1,  7, 14)  (  1,  7, 14)
  0  0.9045E-02  0  0.3251E-02  0 -0.2076E-02  1  0.1765E-01  0  0.1327E-01
   (  1,  7, 14)  (  1,  7, 14)  (  1, 20, 15)  (  1,  6, 15)  (  1,  7, 14)
  0  0.1192E-01  0  0.7937E-02  0  0.3152E-02  0  0.1146E-02  1  0.6467E-02
   (  1,  7, 14)  (  1,  7, 14)  (  1,  7, 14)  (  1,  7, 14)  (  1,  6, 15)
  0  0.4572E-02  0  0.4183E-02  1  0.8313E-02
   (  1,  7, 14)  (  1,  7, 14)  (  1,  6, 15)



 OUTPUT CONTROL FOR STRESS PERIOD    3   TIME STEP    1
    SAVE HEAD FOR ALL LAYERS
    SAVE BUDGET
 UBDSV2 SAVING "   CONSTANT HEAD" ON UNIT  53 AT TIME STEP  1, STRESS PERIOD   3
 UBDSV1 SAVING "FLOW RIGHT FACE " ON UNIT  53 AT TIME STEP  1, STRESS PERIOD   3
 UBDSV1 SAVING "FLOW FRONT FACE " ON UNIT  53 AT TIME STEP  1, STRESS PERIOD   3

 HEAD WILL BE SAVED ON UNIT   51 AT END OF TIME STEP    1, STRESS PERIOD    3
1
  VOLUMETRIC BUDGET FOR ENTIRE MODEL AT END OF TIME STEP    1, STRESS PERIOD   3
  ------------------------------------------------------------------------------

     CUMULATIVE VOLUMES      L**3       RATES FOR THIS TIME STEP      L**3/T
     ------------------                 ------------------------

           IN:                                      IN:
           ---                                      ---
             STORAGE =     2169599.7500               STORAGE =           0.0000
       CONSTANT HEAD =         787.5696         CONSTANT HEAD =           0.0000
               WELLS =           0.0000                 WELLS =           0.0000
       RIVER LEAKAGE =     1295180.3750         RIVER LEAKAGE =        1457.4210
            RECHARGE =     7242964.5000              RECHARGE =        3963.3401

            TOTAL IN =    10708532.0000              TOTAL IN =        5420.7612

          OUT:                                     OUT:
          ----                                     ----
             STORAGE =      369494.0625               STORAGE =           0.0000
       CONSTANT HEAD =      645288.7500         CONSTANT HEAD =         300.7431
               WELLS =     3333912.0000                 WELLS =        1885.8878
       RIVER LEAKAGE =     6359942.0000         RIVER LEAKAGE =        3234.1128
            RECHARGE =           0.0000              RECHARGE =           0.0000

           TOTAL OUT =    10708637.0000             TOTAL OUT =        5420.7437

            IN - OUT =        -105.0000              IN - OUT =       1.7578E-02

 PERCENT DISCREPANCY =          -0.00     PERCENT DISCREPANCY =           0.00






         TIME SUMMARY AT END OF TIME STEP    1 IN STRESS PERIOD    3
                    SECONDS     MINUTES      HOURS       DAYS        YEARS
                    -----------------------------------------------------------
   TIME STEP LENGTH  86400.      1440.0      24.000      1.0000     2.73785E-03
 STRESS PERIOD TIME  86400.      1440.0      24.000      1.0000     2.73785E-03
         TOTAL TIME 1.57853E+08 2.63088E+06  43848.      1827.0      5.0021    
1

 Run end date and time (yyyy/mm/dd hh:mm:ss): 2016/05/11 14:17:42
 Elapsed run time:  0.025 Seconds

