                                  MODFLOW-2005     
      U.S. GEOLOGICAL SURVEY MODULAR FINITE-DIFFERENCE GROUND-WATER FLOW MODEL
                            VERSION 1.11.00 8/8/2013

 LIST FILE: freyberg.list
                         UNIT    2

 OPENING freyberg.hyd
 FILE TYPE:HYD   UNIT   36   STATUS:OLD    
 FORMAT:FORMATTED              ACCESS:SEQUENTIAL          

 OPENING freyberg.dis
 FILE TYPE:DIS   UNIT   11   STATUS:OLD    
 FORMAT:FORMATTED              ACCESS:SEQUENTIAL          

 OPENING freyberg_zones.lpf
 FILE TYPE:LPF   UNIT   31   STATUS:OLD    
 FORMAT:FORMATTED              ACCESS:SEQUENTIAL          

 OPENING freyberg.pcg
 FILE TYPE:PCG   UNIT   32   STATUS:OLD    
 FORMAT:FORMATTED              ACCESS:SEQUENTIAL          

 OPENING freyberg.bas
 FILE TYPE:BAS6   UNIT   13   STATUS:OLD    
 FORMAT:FORMATTED              ACCESS:SEQUENTIAL          

 OPENING freyberg.rch
 FILE TYPE:RCH   UNIT   19   STATUS:OLD    
 FORMAT:FORMATTED              ACCESS:SEQUENTIAL          

 OPENING freyberg.wel
 FILE TYPE:WEL   UNIT   20   STATUS:OLD    
 FORMAT:FORMATTED              ACCESS:SEQUENTIAL          

 OPENING freyberg.riv
 FILE TYPE:RIV   UNIT   18   STATUS:OLD    
 FORMAT:FORMATTED              ACCESS:SEQUENTIAL          

 OPENING freyberg.oc
 FILE TYPE:OC   UNIT   14   STATUS:OLD    
 FORMAT:FORMATTED              ACCESS:SEQUENTIAL          

 OPENING freyberg.hds
 FILE TYPE:DATA(BINARY)   UNIT   51   STATUS:REPLACE
 FORMAT:UNFORMATTED            ACCESS:STREAM              

 OPENING freyberg.ddn
 FILE TYPE:DATA(BINARY)   UNIT   52   STATUS:REPLACE
 FORMAT:UNFORMATTED            ACCESS:STREAM              

 OPENING freyberg.cbc
 FILE TYPE:DATA(BINARY)   UNIT   53   STATUS:REPLACE
 FORMAT:UNFORMATTED            ACCESS:STREAM              

 OPENING freyberg.hyd.bin
 FILE TYPE:DATA(BINARY)   UNIT  536   STATUS:REPLACE
 FORMAT:UNFORMATTED            ACCESS:STREAM              

 BAS -- BASIC PACKAGE, VERSION 7, 5/2/2005 INPUT READ FROM UNIT   13

 MODFLOW was compiled using mixed precision
 Precision of REAL variables:           6
 Precision of DOUBLE PRECISION variables:          15

 DISCRETIZATION INPUT DATA READ FROM UNIT   11
 # Discretization file for MODFLOW, generated by Flopy.
    1 LAYERS        40 ROWS        20 COLUMNS
    3 STRESS PERIOD(S) IN SIMULATION
 MODEL TIME UNIT IS DAYS
 MODEL LENGTH UNIT IS METERS
  Confining bed flag for each layer:
   0



                               DELR
 READING ON UNIT   11 WITH FORMAT: (20G15.6)           



                               DELC
 READING ON UNIT   11 WITH FORMAT: (40G15.6)           

 TOP ELEVATION OF LAYER 1 =   35.0000    

 OPENING FILE ON UNIT   99:
 botm.ref                                                                                                                                                                                                



             MODEL LAYER BOTTOM EL. FOR LAYER   1
 READING ON UNIT   99 WITH FORMAT: (10E12.4)           


 STRESS PERIOD     LENGTH       TIME STEPS     MULTIPLIER FOR DELT    SS FLAG
 ----------------------------------------------------------------------------
        1         1.000000          1                    1.000         SS
        2         1825.000          1                    1.000         TR
        3         1.000000          1                    1.000         SS

 COMBINED STEADY-STATE AND TRANSIENT SIMULATION




 # Basic package file for MODFLOW, generated by Flopy.                           
 THE FREE FORMAT OPTION HAS BEEN SELECTED

 OPENING FILE ON UNIT   99:
 ibound.ref                                                                                                                                                                                              



                     BOUNDARY ARRAY FOR LAYER   1
 READING ON UNIT   99 WITH FORMAT: (25I3)              

 AQUIFER HEAD WILL BE SET TO  -999.99     AT ALL NO-FLOW NODES (IBOUND=0).

 OPENING FILE ON UNIT   99:
 strt.ref                                                                                                                                                                                                



                       INITIAL HEAD FOR LAYER   1
 READING ON UNIT   99 WITH FORMAT: (10E12.4)           
 # Output control package file for MODFLOW, generated by Flopy.

 OUTPUT CONTROL IS SPECIFIED ONLY AT TIME STEPS FOR WHICH OUTPUT IS DESIRED
 COMPACT CELL-BY-CELL BUDGET FILES WILL BE WRITTEN
 AUXILIARY DATA WILL BE SAVED IN CELL-BY-CELL BUDGET FILES
 HEAD PRINT FORMAT CODE IS   0    DRAWDOWN PRINT FORMAT CODE IS   0
 HEADS WILL BE SAVED ON UNIT   51    DRAWDOWNS WILL BE SAVED ON UNIT   52

 LPF -- LAYER-PROPERTY FLOW PACKAGE, VERSION 7, 5/2/2005
         INPUT READ FROM UNIT   31
 # LPF for MODFLOW-2005, generated by Flopy.
 CELL-BY-CELL FLOWS WILL BE SAVED ON UNIT   53
 HEAD AT CELLS THAT CONVERT TO DRY= -1.00000E+30
 No named parameters

   LAYER FLAGS:
 LAYER       LAYTYP        LAYAVG         CHANI        LAYVKA        LAYWET
 ---------------------------------------------------------------------------
    1             1             0     1.000E+00             0             0

   INTERPRETATION OF LAYER FLAGS:
                        INTERBLOCK     HORIZONTAL    DATA IN
         LAYER TYPE   TRANSMISSIVITY   ANISOTROPY   ARRAY VKA   WETTABILITY
 LAYER      (LAYTYP)      (LAYAVG)       (CHANI)      (LAYVKA)      (LAYWET)
 ---------------------------------------------------------------------------
    1   CONVERTIBLE      HARMONIC     1.000E+00    VERTICAL K  NON-WETTABLE

 WETTING CAPABILITY IS NOT ACTIVE IN ANY LAYER

 OPENING FILE ON UNIT   99:
 hk.ref                                                                                                                                                                                                  



              HYD. COND. ALONG ROWS FOR LAYER   1
 READING ON UNIT   99 WITH FORMAT: (FREE)              

      VERTICAL HYD. COND. =   1.00000     FOR LAYER   1

         SPECIFIC STORAGE =  1.000000E-04 FOR LAYER   1

           SPECIFIC YIELD =  0.250000     FOR LAYER   1

 WEL -- WELL PACKAGE, VERSION 7, 5/2/2005 INPUT READ FROM UNIT   20
 # Well file for MODFLOW, generated by Flopy.
 No named parameters
 MAXIMUM OF      6 ACTIVE WELLS AT ONE TIME


     0 Well parameters

 RIV -- RIVER PACKAGE, VERSION 7, 5/2/2005 INPUT READ FROM UNIT   18
 # RIV for MODFLOW, generated by Flopy.
 No named parameters
 MAXIMUM OF     40 ACTIVE RIVER REACHES AT ONE TIME


     0 River parameters

 RCH -- RECHARGE PACKAGE, VERSION 7, 5/2/2005 INPUT READ FROM UNIT   19
 # RCH for MODFLOW, generated by Flopy.
 No named parameters
 OPTION 3 -- RECHARGE TO HIGHEST ACTIVE NODE IN EACH VERTICAL COLUMN


     0 Recharge parameters

 PCG -- CONJUGATE-GRADIENT SOLUTION PACKAGE, VERSION 7, 5/2/2005
 MAXIMUM OF    100 CALLS OF SOLUTION ROUTINE
 MAXIMUM OF     25 INTERNAL ITERATIONS PER CALL TO SOLUTION ROUTINE
 MATRIX PRECONDITIONING TYPE :    1
 IHCOFADD option -- When an active cell is surrounded by dry cells, convert
 the cell to dry only if storage and head-dependent boundary flow are 0.



                                    SOLUTION BY THE CONJUGATE-GRADIENT METHOD
                                   -------------------------------------------
                    MAXIMUM NUMBER OF CALLS TO PCG ROUTINE =      100
                        MAXIMUM ITERATIONS PER CALL TO PCG =       25
                               MATRIX PRECONDITIONING TYPE =        1
        RELAXATION FACTOR (ONLY USED WITH PRECOND. TYPE 1) =    0.10000E+01
 PARAMETER OF POLYNOMIAL PRECOND. = 2 (2) OR IS CALCULATED :        2
                         HEAD CHANGE CRITERION FOR CLOSURE =    0.10000E-04
                     RESIDUAL CHANGE CRITERION FOR CLOSURE =    0.10000E+00
            PCG HEAD AND RESIDUAL CHANGE PRINTOUT INTERVAL =        5
     PRINTING FROM SOLVER IS LIMITED(1) OR SUPPRESSED (>1) =        0
                            STEADY-STATE DAMPING PARAMETER =    0.70000E+00
                               TRANSIENT DAMPING PARAMETER =    0.70000E+00

 HYD -- HYDROGRAPH DATA FOR BAS PACKAGE, VERSION 7, 07/14/2006
         INPUT READ FROM UNIT 36
 HYDROGRAPH VALUES WILL BE SAVED ON UNIT: 536
 HYDROGRAPH VALUES AT DRY CELLS WILL BE:  -1.00000E+07

 ARR INTYP  KLAY     XL            YL         HYDLBL
 ----------------------------------------------------------------
 HD   I      1   4.12500E+03   9.12500E+03  HDI001or03c16       
 HD   I      1   2.62500E+03   9.12500E+03  HDI001or03c10       
 HD   I      1   2.37500E+03   8.87500E+03  HDI001or04c9        
 HD   I      1   6.25000E+02   7.37500E+03  HDI001or10c2        
 HD   I      1   2.87500E+03   6.37500E+03  HDI001or14c11       
 HD   I      1   4.37500E+03   5.87500E+03  HDI001or16c17       
 HD   I      1   2.87500E+03   4.37500E+03  HDI001or22c11       
 HD   I      1   4.12500E+03   4.12500E+03  HDI001or23c16       
 HD   I      1   1.37500E+03   3.62500E+03  HDI001or25c5        
 HD   I      1   1.87500E+03   3.12500E+03  HDI001or27c7        
 HD   I      1   4.12500E+03   2.37500E+03  HDI001or30c16       
 HD   I      1   2.12500E+03   1.37500E+03  HDI001or34c8        
 HD   I      1   2.87500E+03   1.12500E+03  HDI001or35c11       
 HD   I      1   6.25000E+02   9.37500E+03  HDI001fr02c02       
 HD   I      1   3.37500E+03   9.62500E+03  HDI001fr01c13       
 HD   I      1   3.87500E+03   7.62500E+03  HDI001fr09c15       
 HD   I      1   2.62500E+03   3.62500E+03  HDI001fr25c10       
1
                            STRESS PERIOD NO.    1, LENGTH =   1.000000    
                            -----------------------------------------------

                              NUMBER OF TIME STEPS =     1

                               MULTIPLIER FOR DELT =     1.000

                            INITIAL TIME STEP SIZE =   1.000000    

 WELL NO.  LAYER   ROW   COL   STRESS RATE         
 --------------------------------------------------
      1      1      9     16      -628.8    
      2      1     11     13      -330.9    
      3      1     20     14      -339.7    
      4      1     26     10      -66.29    
      5      1     29      6      -64.28    
      6      1     34     12      -444.3    

      6 WELLS

 REACH NO.  LAYER   ROW   COL     STAGE      CONDUCTANCE     BOTTOM EL.         
 -------------------------------------------------------------------------------
      1      1      1     15       20.19           5776.           20.00    
      2      1      2     15       19.60           3790.           19.75    
      3      1      3     15       19.89           5532.           19.50    
      4      1      4     15       19.38           6135.           19.25    
      5      1      5     15       19.28           5536.           19.00    
      6      1      6     15       19.22           3842.           18.75    
      7      1      7     15       18.90           2866.           18.50    
      8      1      8     15       18.42           4318.           18.25    
      9      1      9     15       18.10           4796.           18.00    
     10      1     10     15       18.88           4638.           17.75    
     11      1     11     15       18.01           4619.           17.50    
     12      1     12     15       17.35           5474.           17.25    
     13      1     13     15       17.33           3453.           17.00    
     14      1     14     15       17.56           6251.           16.75    
     15      1     15     15       16.76           5307.           16.50    
     16      1     16     15       16.28           6982.           16.25    
     17      1     17     15       16.41           5070.           16.00    
     18      1     18     15       15.91           4556.           15.75    
     19      1     19     15       16.06           5303.           15.50    
     20      1     20     15       16.06           4765.           15.25    
     21      1     21     15       15.52           5390.           15.00    
     22      1     22     15       15.39           2649.           14.75    
     23      1     23     15       15.16           4347.           14.50    
     24      1     24     15       15.01           5110.           14.25    
     25      1     25     15       14.90           3705.           14.00    
     26      1     26     15       14.49           3711.           13.75    
     27      1     27     15       14.17           4484.           13.50    
     28      1     28     15       14.01           4405.           13.25    
     29      1     29     15       13.73           5105.           13.00    
     30      1     30     15       13.58           5620.           12.75    
     31      1     31     15       13.32           3492.           12.50    
     32      1     32     15       13.14           5515.           12.25    
     33      1     33     15       12.85           4310.           12.00    
     34      1     34     15       12.55           6270.           11.75    
     35      1     35     15       12.22           5453.           11.50    
     36      1     36     15       12.25           4212.           11.25    
     37      1     37     15       11.85           6121.           11.00    
     38      1     38     15       11.90           6083.           10.75    
     39      1     39     15       11.48           3721.           10.50    
     40      1     40     15       11.24           5427.           10.25    

     40 RIVER REACHES

                 RECHARGE =  4.333280E-04

 SOLVING FOR HEAD 


    15 CALLS TO PCG ROUTINE FOR TIME STEP   1 IN STRESS PERIOD    1
   220 TOTAL ITERATIONS

 MAXIMUM HEAD CHANGE FOR EACH ITERATION (1 INDICATES THE FIRST INNER ITERATION):

    HEAD CHANGE    HEAD CHANGE    HEAD CHANGE    HEAD CHANGE    HEAD CHANGE 
   LAYER,ROW,COL  LAYER,ROW,COL  LAYER,ROW,COL  LAYER,ROW,COL  LAYER,ROW,COL
 ---------------------------------------------------------------------------
  1  -49.70      0  -37.51      0   18.29      0   11.89      0   4.745    
   (  1, 39,  7)  (  1,  9,  4)  (  1,  9,  4)  (  1, 35,  8)  (  1, 23,  5)
  0   2.055      0  -1.200      0  -1.105      0 -0.2804      0 -0.3837    
   (  1, 21, 11)  (  1, 28,  7)  (  1, 14,  1)  (  1, 28, 10)  (  1,  8,  5)
  0 -0.1218      0 -0.4681E-01  0 -0.3215E-01  0 -0.4163E-01  0  0.3618E-01
   (  1, 24, 11)  (  1, 19,  4)  (  1, 36, 19)  (  1,  9,  4)  (  1,  9,  4)
  0  0.9021E-02  0  0.5112E-02  0  0.2118E-02  0 -0.1210E-02  0  0.3447E-03
   (  1, 25,  2)  (  1, 32,  1)  (  1, 17,  4)  (  1, 11,  1)  (  1, 25, 10)
  0  0.4035E-03  0 -0.1761E-03  0  0.7082E-04  0 -0.7935E-04  0  0.5077E-04
   (  1, 19,  4)  (  1, 15,  2)  (  1, 15,  3)  (  1,  9,  4)  (  1,  9,  4)
  1  -14.04      0  -17.70      0  -3.777      0   3.677      0   1.367    
   (  1, 39,  7)  (  1,  9,  4)  (  1,  8,  5)  (  1, 35,  8)  (  1, 24,  6)
  0  0.5729      0  0.3926      0 -0.4027      0  0.1175      0 -0.8268E-01
   (  1, 21, 11)  (  1, 23, 11)  (  1, 13,  1)  (  1,  4,  1)  (  1, 36, 19)
  0 -0.8078E-01  0 -0.3755E-01  0 -0.1340E-01  0  0.1426E-01  0 -0.5414E-02
   (  1,  8,  5)  (  1, 24, 11)  (  1, 19, 11)  (  1,  9,  4)  (  1, 32,  8)
  0  0.3323E-02  0  0.1694E-02  0  0.5959E-03  0  0.2571E-03  0  0.1739E-03
   (  1, 29,  6)  (  1, 32,  1)  (  1, 33,  8)  (  1, 21,  9)  (  1, 25,  3)
  0  0.1619E-03  0 -0.4305E-04  0 -0.2414E-04  0  0.3875E-04  0 -0.2494E-04
   (  1, 19,  4)  (  1, 15,  2)  (  1,  9,  2)  (  1,  9,  4)  (  1,  9,  4)
  1   12.28      0  -10.19      0  -2.707      0 -0.8488      0 -0.3677    
   (  1,  9,  4)  (  1,  9,  4)  (  1,  8,  5)  (  1, 11,  2)  (  1,  1,  3)
  0 -0.2086      0  0.1642      0 -0.1171      0  0.6056E-01  0 -0.3327E-01
   (  1, 26, 10)  (  1, 22, 11)  (  1, 32,  1)  (  1, 37, 19)  (  1, 36, 19)
  0 -0.3991E-01  0 -0.1484E-01  0 -0.8036E-02  0  0.7406E-02  0 -0.2093E-02
   (  1,  8,  5)  (  1, 24, 11)  (  1,  9,  4)  (  1,  9,  4)  (  1, 30,  6)
  0  0.1109E-02  0  0.6502E-03  0 -0.2116E-03  0  0.8519E-04  0  0.3761E-04
   (  1, 29,  6)  (  1, 32,  1)  (  1, 37,  8)  (  1, 25,  3)  (  1, 25, 10)
  0  0.4587E-04  0  0.2135E-04  0 -0.1989E-04  0  0.1062E-04  0  0.7078E-05
   (  1, 19,  3)  (  1,  9,  4)  (  1,  9,  2)  (  1,  9,  4)  (  1, 17,  4)
  1   2.041      0  -1.975      0  0.8254      0 -0.2686      0 -0.1527    
   (  1,  9,  4)  (  1,  9,  4)  (  1,  9,  4)  (  1,  9,  4)  (  1, 20, 11)
  0 -0.8239E-01  0 -0.6259E-01  0 -0.3632E-01  0  0.2755E-01  0 -0.1243E-01
   (  1, 26, 10)  (  1, 28,  7)  (  1, 36, 19)  (  1, 37, 19)  (  1,  8,  5)
  0 -0.5202E-02  0 -0.5616E-02  0 -0.1840E-02  0 -0.1120E-02  0 -0.7623E-03
   (  1, 28,  4)  (  1,  8,  5)  (  1, 33,  2)  (  1, 30,  6)  (  1,  9,  4)
  0  0.7022E-03  0  0.2476E-03  0 -0.1374E-03  0  0.5468E-04  0 -0.1802E-04
   (  1,  9,  4)  (  1, 12,  1)  (  1, 15,  3)  (  1, 17,  4)  (  1, 19, 11)
  0 -0.6282E-05  1  0.5387      0  0.6965      0 -0.2994      0 -0.9494E-01
   (  1, 37, 19)  (  1, 26, 10)  (  1,  9,  4)  (  1,  9,  4)  (  1, 22, 11)
  0 -0.6849E-01  0 -0.3600E-01  0 -0.2905E-01  0  0.1293E-01  0  0.9856E-02
   (  1, 27, 12)  (  1, 34,  8)  (  1, 18,  4)  (  1,  8,  5)  (  1, 37, 19)
  0 -0.7543E-02  0 -0.3300E-02  0 -0.1876E-02  0 -0.7532E-03  0  0.5177E-03
   (  1,  8,  5)  (  1, 29,  3)  (  1, 24, 11)  (  1, 33,  2)  (  1,  9,  4)
  0 -0.4395E-03  0 -0.1413E-03  0  0.1044E-03  0 -0.4297E-04  0  0.1550E-04
   (  1,  9,  4)  (  1, 30,  2)  (  1, 12,  1)  (  1, 18,  4)  (  1, 19, 11)
  0  0.6489E-05  1 -0.2222      0  0.2689      0 -0.8022E-01  0 -0.3327E-01
   (  1, 26, 10)  (  1,  9,  4)  (  1,  9,  4)  (  1, 26, 10)  (  1, 29,  9)
  0 -0.2841E-01  0 -0.1697E-01  0 -0.9433E-02  0  0.4183E-02  0  0.3303E-02
   (  1, 27, 12)  (  1, 35,  8)  (  1, 29, 11)  (  1,  8,  5)  (  1, 37, 19)
  0 -0.2318E-02  0 -0.1130E-02  0 -0.6376E-03  0 -0.2448E-03  0  0.1705E-03
   (  1,  8,  5)  (  1, 30,  4)  (  1, 24, 11)  (  1, 33,  2)  (  1,  9,  4)
  0 -0.1516E-03  0 -0.5183E-04  0  0.3556E-04  0 -0.1251E-04  0 -0.5736E-05
   (  1,  9,  3)  (  1, 31,  4)  (  1, 11,  1)  (  1, 18,  4)  (  1, 26, 10)
  1 -0.6334E-01  0  0.6881E-01  0 -0.2165E-01  0  0.1565E-01  0 -0.9546E-02
   (  1,  9,  4)  (  1,  9,  4)  (  1,  9,  4)  (  1,  9,  4)  (  1, 22, 11)
  0 -0.5791E-02  0 -0.3059E-02  0 -0.1339E-02  0  0.1083E-02  0 -0.6667E-03
   (  1, 35,  8)  (  1, 29, 11)  (  1, 36, 19)  (  1, 37, 19)  (  1,  8,  5)
  0 -0.3316E-03  0 -0.1946E-03  0 -0.9789E-04  0  0.8480E-04  0 -0.4403E-04
   (  1, 19, 11)  (  1, 24, 11)  (  1,  9,  4)  (  1,  9,  4)  (  1, 29,  6)
  0 -0.1715E-04  0  0.1198E-04  0 -0.3191E-05  1  0.1898E-01  0 -0.1237E-01
   (  1, 31,  4)  (  1, 12,  2)  (  1, 26, 10)  (  1, 27, 12)  (  1, 26, 10)
  0 -0.5745E-02  0 -0.3894E-02  0 -0.4360E-02  0 -0.1766E-02  0 -0.9131E-03
   (  1, 29,  9)  (  1, 22, 11)  (  1,  9,  4)  (  1,  8,  5)  (  1, 29, 11)
  0 -0.4300E-03  0  0.3459E-03  0 -0.1758E-03  0  0.1247E-03  0 -0.5772E-04
   (  1, 36, 19)  (  1, 36, 19)  (  1,  8,  5)  (  1,  8,  5)  (  1, 24, 11)
  0 -0.1924E-04  0 -0.1510E-04  0  0.9987E-05  1  0.5788E-02  0 -0.5726E-02
   (  1, 33,  2)  (  1, 29,  6)  (  1,  9,  4)  (  1, 27, 12)  (  1,  9,  4)
  0  0.3559E-02  0 -0.1529E-02  0 -0.7279E-03  0 -0.6109E-03  0 -0.2357E-03
   (  1,  9,  4)  (  1, 22, 11)  (  1, 19, 11)  (  1, 35,  8)  (  1, 28,  7)
  0 -0.1358E-03  0  0.1017E-03  0 -0.5133E-04  0  0.4362E-04  0 -0.1709E-04
   (  1, 22, 11)  (  1, 36, 19)  (  1, 36, 19)  (  1,  8,  5)  (  1, 24, 11)
  0 -0.5612E-05  1  0.1926E-02  0 -0.2526E-02  0  0.6991E-03  0 -0.5994E-03
   (  1, 30, 12)  (  1,  9,  4)  (  1,  9,  4)  (  1,  9,  4)  (  1, 22, 11)
  0 -0.1744E-03  0 -0.1933E-03  0 -0.7428E-04  0 -0.4128E-04  0  0.2528E-04
   (  1, 27, 13)  (  1, 35,  8)  (  1, 28,  7)  (  1,  5,  1)  (  1, 36, 19)
  0 -0.1728E-04  0  0.1148E-04  0 -0.5194E-05  1  0.7771E-03  0 -0.8285E-03
   (  1, 36, 19)  (  1,  8,  5)  (  1,  8,  5)  (  1,  9,  4)  (  1,  9,  4)
  0 -0.1928E-03  0 -0.1845E-03  0 -0.6014E-04  0 -0.5862E-04  0 -0.3749E-04
   (  1, 27, 12)  (  1, 22, 11)  (  1, 27, 13)  (  1, 35,  8)  (  1,  5,  2)
  0  0.1470E-04  0 -0.7431E-05  1  0.2634E-03  0 -0.2462E-03  0 -0.6000E-04
   (  1,  8,  5)  (  1, 19, 11)  (  1,  9,  4)  (  1,  9,  4)  (  1, 27, 12)
  0 -0.4865E-04  0  0.2829E-04  0 -0.1557E-04  0 -0.9869E-05  1  0.8366E-04
   (  1, 21, 11)  (  1,  8,  5)  (  1, 34,  8)  (  1,  5,  2)  (  1,  9,  4)
  0 -0.7077E-04  0 -0.2895E-04  0 -0.1130E-04  0 -0.1278E-04  0 -0.6323E-05
   (  1,  9,  4)  (  1,  8,  5)  (  1, 19, 11)  (  1, 27, 13)  (  1, 36, 19)
  1  0.1876E-04  0 -0.1549E-04  0  0.1234E-04  0 -0.7676E-05  1  0.4732E-05
   (  1, 36, 19)  (  1, 36, 19)  (  1,  9,  4)  (  1, 19, 11)  (  1, 20, 11)

 MAXIMUM RESIDUAL FOR EACH ITERATION (1 INDICATES THE FIRST INNER ITERATION):

    RESIDUAL       RESIDUAL       RESIDUAL       RESIDUAL       RESIDUAL    
   LAYER,ROW,COL  LAYER,ROW,COL  LAYER,ROW,COL  LAYER,ROW,COL  LAYER,ROW,COL
 ---------------------------------------------------------------------------
  1 -0.1569E+05  0 -0.1042E+05  0   9277.      0  -3081.      0  -2016.    
   (  1, 39,  7)  (  1, 39,  7)  (  1, 36,  7)  (  1, 39,  7)  (  1, 39, 15)
  0   2584.      0  -1340.      0  -918.8      0  -582.1      0  -343.4    
   (  1, 27,  9)  (  1, 39, 15)  (  1, 39, 15)  (  1, 39, 15)  (  1, 39, 15)
  0  -178.7      0  -98.79      0  -70.13      0  -48.83      0  -28.36    
   (  1, 39, 15)  (  1, 39, 15)  (  1, 39, 15)  (  1, 39, 15)  (  1, 39, 15)
  0  -11.66      0  -4.230      0  -1.631      0 -0.8086      0 -0.6016    
   (  1, 39, 15)  (  1, 39, 15)  (  1, 39, 14)  (  1, 39, 14)  (  1, 39, 14)
  0 -0.2070      0 -0.1076      0  0.7504E-01  0 -0.4114E-01  0 -0.3521E-01
   (  1, 37, 15)  (  1, 37, 15)  (  1, 35,  8)  (  1, 37, 15)  (  1, 37, 15)
  1   4214.      0  -3149.      0   2001.      0  -861.3      0  -453.3    
   (  1, 35,  8)  (  1, 39,  7)  (  1, 36,  7)  (  1, 39,  7)  (  1, 39, 15)
  0   603.7      0  -305.2      0  -213.4      0  -156.7      0  -112.0    
   (  1, 27,  9)  (  1, 39, 15)  (  1, 39, 15)  (  1, 39, 15)  (  1, 39, 15)
  0  -74.11      0  -38.23      0  -19.41      0  -16.27      0  -7.729    
   (  1, 39, 15)  (  1, 39, 15)  (  1, 39, 15)  (  1, 39, 15)  (  1, 39, 15)
  0  -3.582      0  -1.470      0 -0.5808      0 -0.3422      0 -0.1758    
   (  1, 39, 15)  (  1, 39, 15)  (  1, 39, 15)  (  1, 39, 15)  (  1, 39, 15)
  0 -0.4322E-01  0 -0.2802E-01  0 -0.2158E-01  0 -0.1695E-01  0 -0.1058E-01
   (  1, 37, 15)  (  1, 38, 15)  (  1, 38, 15)  (  1, 38, 15)  (  1, 38, 15)
  1   2136.      0  -762.1      0   652.3      0  -253.7      0   131.3    
   (  1, 38, 15)  (  1, 39,  7)  (  1, 36,  7)  (  1, 39,  7)  (  1, 26, 10)
  0   126.7      0  -71.48      0  -51.60      0  -39.49      0  -30.39    
   (  1, 27,  9)  (  1, 36,  7)  (  1, 39, 15)  (  1, 39, 15)  (  1, 39, 15)
  0  -18.40      0  -9.686      0  -7.600      0  -4.394      0  -2.510    
   (  1, 39, 15)  (  1, 39, 15)  (  1, 39, 15)  (  1, 39, 15)  (  1, 39, 15)
  0  -1.215      0 -0.5216      0 -0.2394      0 -0.9856E-01  0 -0.7441E-01
   (  1, 39, 15)  (  1, 39, 15)  (  1, 39, 15)  (  1, 39, 15)  (  1, 39, 15)
  0 -0.2566E-01  0 -0.1433E-01  0 -0.9793E-02  0 -0.6541E-02  0 -0.3478E-02
   (  1, 39, 15)  (  1, 39, 15)  (  1, 39, 15)  (  1, 39, 15)  (  1, 38, 15)
  1   637.4      0   182.3      0   247.4      0  -66.22      0   42.71    
   (  1, 35,  8)  (  1, 38, 15)  (  1, 36,  7)  (  1, 39, 12)  (  1, 26, 10)
  0   40.10      0  -24.82      0  -13.56      0  -10.80      0  -6.860    
   (  1, 27,  9)  (  1, 36,  7)  (  1, 39, 15)  (  1, 39, 15)  (  1, 39, 15)
  0  -4.631      0  -2.844      0  -1.581      0 -0.9584      0 -0.7532    
   (  1, 39, 15)  (  1, 39, 15)  (  1, 39, 15)  (  1, 39, 15)  (  1, 39, 15)
  0 -0.4559      0 -0.1960      0 -0.9629E-01  0 -0.4328E-01  0 -0.1570E-01
   (  1, 39, 15)  (  1, 39, 15)  (  1, 39, 15)  (  1, 39, 15)  (  1, 39, 15)
  0 -0.1132E-01  1   217.5      0   77.81      0   85.13      0  -25.52    
   (  1, 39, 15)  (  1, 38, 15)  (  1, 38, 15)  (  1, 36,  7)  (  1, 39,  6)
  0   21.01      0   10.41      0  -8.119      0  -4.379      0  -3.322    
   (  1, 27,  9)  (  1, 13, 11)  (  1, 36,  7)  (  1, 36,  7)  (  1, 39, 15)
  0  -2.549      0  -1.627      0 -0.9509      0 -0.5404      0 -0.4168    
   (  1, 39, 15)  (  1, 39, 15)  (  1, 39, 15)  (  1, 39, 15)  (  1, 39, 15)
  0 -0.2976      0 -0.1621      0 -0.6994E-01  0 -0.3510E-01  0 -0.1873E-01
   (  1, 39, 15)  (  1, 39, 15)  (  1, 39, 15)  (  1, 39, 15)  (  1, 39, 15)
  0 -0.1431E-01  1   87.51      0   34.37      0  -25.30      0   12.75    
   (  1, 39, 15)  (  1, 38, 15)  (  1, 38, 15)  (  1, 26, 10)  (  1, 36,  7)
  0   5.620      0   3.772      0  -2.337      0  -1.462      0  -1.008    
   (  1, 35,  8)  (  1, 13, 11)  (  1, 36,  7)  (  1, 36,  7)  (  1, 39, 15)
  0 -0.8000      0 -0.5092      0 -0.3024      0 -0.1740      0 -0.1387    
   (  1, 39, 15)  (  1, 39, 15)  (  1, 39, 15)  (  1, 39, 15)  (  1, 39, 15)
  0 -0.9878E-01  0 -0.5509E-01  0 -0.2327E-01  0 -0.1287E-01  0 -0.1017E-01
   (  1, 39, 15)  (  1, 39, 15)  (  1, 39, 15)  (  1, 39, 15)  (  1, 39, 15)
  1   26.45      0   10.85      0  -9.687      0   5.207      0   2.016    
   (  1, 37, 15)  (  1, 38, 15)  (  1, 26, 10)  (  1, 36,  7)  (  1, 35,  8)
  0   1.194      0 -0.6733      0 -0.4404      0 -0.3018      0 -0.2445    
   (  1, 13, 11)  (  1, 36,  7)  (  1, 36,  7)  (  1, 39, 15)  (  1, 39, 15)
  0 -0.1585      0 -0.9473E-01  0 -0.6079E-01  0 -0.4961E-01  0 -0.3185E-01
   (  1, 39, 15)  (  1, 39, 15)  (  1, 39, 15)  (  1, 39, 15)  (  1, 39, 15)
  0 -0.1802E-01  0 -0.7592E-02  0 -0.5413E-02  1   8.392      0  -3.837    
   (  1, 39, 15)  (  1, 39, 15)  (  1, 39, 15)  (  1, 26, 10)  (  1, 26, 10)
  0   2.366      0 -0.6848      0  0.4644      0  0.3368      0  0.2075    
   (  1, 36,  7)  (  1, 39,  6)  (  1, 13, 11)  (  1, 13, 11)  (  1, 15, 13)
  0 -0.1311      0 -0.8984E-01  0 -0.7222E-01  0 -0.4866E-01  0 -0.2924E-01
   (  1, 37,  7)  (  1, 39, 15)  (  1, 39, 15)  (  1, 39, 15)  (  1, 39, 15)
  0 -0.1685E-01  0 -0.1089E-01  0 -0.7377E-02  1   2.651      0   1.122    
   (  1, 39, 15)  (  1, 39, 15)  (  1, 39, 15)  (  1, 37, 15)  (  1, 38, 15)
  0  -1.108      0  0.5213      0  0.2162      0  0.1024      0  0.7067E-01
   (  1, 26, 10)  (  1, 36,  7)  (  1, 35,  8)  (  1, 17, 14)  (  1, 15, 13)
  0 -0.3792E-01  0 -0.2654E-01  0 -0.2035E-01  0 -0.1471E-01  0 -0.8986E-02
   (  1, 36, 19)  (  1, 39, 15)  (  1, 39, 15)  (  1, 39, 15)  (  1, 39, 15)
  0 -0.5492E-02  1   1.032      0  0.3824      0 -0.3552      0  0.1395    
   (  1, 39, 15)  (  1, 16, 15)  (  1, 37, 15)  (  1, 26, 10)  (  1, 36,  7)
  0  0.8734E-01  0  0.3464E-01  0  0.1883E-01  0 -0.1050E-01  0 -0.7532E-02
   (  1, 35,  8)  (  1, 17, 14)  (  1, 15, 13)  (  1, 37,  7)  (  1, 39, 15)
  0 -0.5600E-02  0 -0.4217E-02  0 -0.2713E-02  1  0.3527      0  0.1237    
   (  1, 39, 15)  (  1, 39, 15)  (  1, 39, 15)  (  1, 16, 15)  (  1, 37, 15)
  0 -0.1111      0  0.3117E-01  0  0.3141E-01  0  0.1158E-01  0  0.5076E-02
   (  1, 26, 10)  (  1, 36,  7)  (  1, 35,  8)  (  1, 17, 14)  (  1, 15, 13)
  0 -0.2881E-02  0 -0.1858E-02  1  0.1040      0  0.3946E-01  0 -0.3348E-01
   (  1, 37,  7)  (  1, 39, 15)  (  1, 16, 15)  (  1, 37, 15)  (  1, 26, 10)
  0  0.1005E-01  0 -0.5688E-02  0 -0.3566E-02  0  0.2317E-02  1  0.2918E-01
   (  1, 37, 15)  (  1, 36,  7)  (  1, 35,  8)  (  1, 15, 13)  (  1, 16, 15)
  0  0.1407E-01  0 -0.8036E-02  0  0.3747E-02  0  0.2418E-02  0  0.1511E-02
   (  1, 37, 15)  (  1, 26, 10)  (  1, 37, 15)  (  1, 27,  9)  (  1, 17, 14)
  1  0.1266E-01  0  0.4928E-02  0  0.3004E-02  0  0.8959E-03  1  0.5628E-02
   (  1, 16, 15)  (  1, 37, 15)  (  1, 37, 15)  (  1, 27,  9)  (  1, 16, 15)



 OUTPUT CONTROL FOR STRESS PERIOD    1   TIME STEP    1
    SAVE HEAD FOR ALL LAYERS
    SAVE BUDGET
 UBDSV2 SAVING "   CONSTANT HEAD" ON UNIT  53 AT TIME STEP  1, STRESS PERIOD   1
 UBDSV1 SAVING "FLOW RIGHT FACE " ON UNIT  53 AT TIME STEP  1, STRESS PERIOD   1
 UBDSV1 SAVING "FLOW FRONT FACE " ON UNIT  53 AT TIME STEP  1, STRESS PERIOD   1

 HEAD WILL BE SAVED ON UNIT   51 AT END OF TIME STEP    1, STRESS PERIOD    1
1
  VOLUMETRIC BUDGET FOR ENTIRE MODEL AT END OF TIME STEP    1, STRESS PERIOD   1
  ------------------------------------------------------------------------------

     CUMULATIVE VOLUMES      L**3       RATES FOR THIS TIME STEP      L**3/T
     ------------------                 ------------------------

           IN:                                      IN:
           ---                                      ---
             STORAGE =           0.0000               STORAGE =           0.0000
       CONSTANT HEAD =           0.0000         CONSTANT HEAD =           0.0000
               WELLS =           0.0000                 WELLS =           0.0000
       RIVER LEAKAGE =         952.4979         RIVER LEAKAGE =         952.4979
            RECHARGE =       18822.6855              RECHARGE =       18822.6855

            TOTAL IN =       19775.1836              TOTAL IN =       19775.1836

          OUT:                                     OUT:
          ----                                     ----
             STORAGE =           0.0000               STORAGE =           0.0000
       CONSTANT HEAD =        1977.9113         CONSTANT HEAD =        1977.9113
               WELLS =        1874.3583                 WELLS =        1874.3583
       RIVER LEAKAGE =       15923.2021         RIVER LEAKAGE =       15923.2021
            RECHARGE =           0.0000              RECHARGE =           0.0000

           TOTAL OUT =       19775.4727             TOTAL OUT =       19775.4727

            IN - OUT =          -0.2891              IN - OUT =          -0.2891

 PERCENT DISCREPANCY =          -0.00     PERCENT DISCREPANCY =          -0.00






         TIME SUMMARY AT END OF TIME STEP    1 IN STRESS PERIOD    1
                    SECONDS     MINUTES      HOURS       DAYS        YEARS
                    -----------------------------------------------------------
   TIME STEP LENGTH  86400.      1440.0      24.000      1.0000     2.73785E-03
 STRESS PERIOD TIME  86400.      1440.0      24.000      1.0000     2.73785E-03
         TOTAL TIME  86400.      1440.0      24.000      1.0000     2.73785E-03
1
 A TOTAL OF  17 HYDROGRAPH POINTS HAVE BEEN PREPARED.
1
                            STRESS PERIOD NO.    2, LENGTH =   1825.000    
                            -----------------------------------------------

                              NUMBER OF TIME STEPS =     1

                               MULTIPLIER FOR DELT =     1.000

                            INITIAL TIME STEP SIZE =   1825.000    

 WELL NO.  LAYER   ROW   COL   STRESS RATE         
 --------------------------------------------------
      1      1      9     16      -841.8    
      2      1     11     13      -456.2    
      3      1     20     14      -363.5    
      4      1     26     10      -96.74    
      5      1     29      6      -66.48    
      6      1     34     12      -493.4    

      6 WELLS

 REACH NO.  LAYER   ROW   COL     STAGE      CONDUCTANCE     BOTTOM EL.         
 -------------------------------------------------------------------------------
      1      1      1     15       20.29           6513.           20.00    
      2      1      2     15       19.81           4438.           19.75    
      3      1      3     15       20.10           6156.           19.50    
      4      1      4     15       19.37           5410.           19.25    
      5      1      5     15       19.21           6028.           19.00    
      6      1      6     15       18.97           5313.           18.75    
      7      1      7     15       18.81           3846.           18.50    
      8      1      8     15       18.43           5831.           18.25    
      9      1      9     15       18.58           4497.           18.00    
     10      1     10     15       19.07           4282.           17.75    
     11      1     11     15       17.64           5710.           17.50    
     12      1     12     15       17.46           3483.           17.25    
     13      1     13     15       17.53           4368.           17.00    
     14      1     14     15       17.35           4593.           16.75    
     15      1     15     15       16.87           5063.           16.50    
     16      1     16     15       16.89           2612.           16.25    
     17      1     17     15       16.31           4018.           16.00    
     18      1     18     15       16.11           5095.           15.75    
     19      1     19     15       16.09           5867.           15.50    
     20      1     20     15       15.61           2969.           15.25    
     21      1     21     15       15.30           2970.           15.00    
     22      1     22     15       15.28           4680.           14.75    
     23      1     23     15       15.05           4085.           14.50    
     24      1     24     15       15.21           4238.           14.25    
     25      1     25     15       14.74           5667.           14.00    
     26      1     26     15       14.44           4505.           13.75    
     27      1     27     15       14.35           4536.           13.50    
     28      1     28     15       13.63           4374.           13.25    
     29      1     29     15       13.78           5304.           13.00    
     30      1     30     15       13.71           4737.           12.75    
     31      1     31     15       13.39           4671.           12.50    
     32      1     32     15       12.99           4225.           12.25    
     33      1     33     15       12.89           3323.           12.00    
     34      1     34     15       12.53           3788.           11.75    
     35      1     35     15       12.32           3981.           11.50    
     36      1     36     15       12.11           6059.           11.25    
     37      1     37     15       11.89           5024.           11.00    
     38      1     38     15       11.64           4588.           10.75    
     39      1     39     15       11.37           3807.           10.50    
     40      1     40     15       11.57           3644.           10.25    

     40 RIVER REACHES

                 RECHARGE =  9.358508E-05

 SOLVING FOR HEAD 


    11 CALLS TO PCG ROUTINE FOR TIME STEP   1 IN STRESS PERIOD    2
    94 TOTAL ITERATIONS

 MAXIMUM HEAD CHANGE FOR EACH ITERATION (1 INDICATES THE FIRST INNER ITERATION):

    HEAD CHANGE    HEAD CHANGE    HEAD CHANGE    HEAD CHANGE    HEAD CHANGE 
   LAYER,ROW,COL  LAYER,ROW,COL  LAYER,ROW,COL  LAYER,ROW,COL  LAYER,ROW,COL
 ---------------------------------------------------------------------------
  1  -1.402      0 -0.1968      0 -0.2334      0  0.1031      0 -0.4614E-01
   (  1,  9,  4)  (  1, 38, 18)  (  1, 36, 19)  (  1, 36, 19)  (  1, 37, 19)
  0  0.2605E-01  0  0.1135E-01  0  0.4390E-02  0 -0.1565E-02  0 -0.7142E-03
   (  1, 35,  8)  (  1, 39,  7)  (  1,  6, 12)  (  1,  2,  9)  (  1, 37,  8)
  0 -0.2967E-03  0 -0.1065E-03  0 -0.4554E-04  0 -0.2904E-04  0 -0.7245E-05
   (  1,  5,  2)  (  1,  1,  3)  (  1,  6,  5)  (  1,  9,  4)  (  1,  8,  5)
  1 -0.3680      0  0.6398E-01  0 -0.5090E-01  0  0.3099E-01  0 -0.2101E-01
   (  1, 26, 10)  (  1, 26, 10)  (  1, 36, 19)  (  1, 36, 19)  (  1, 37, 19)
  0  0.6648E-02  0 -0.2641E-02  0  0.1220E-02  0 -0.5375E-03  0  0.2894E-03
   (  1, 36,  9)  (  1, 35,  8)  (  1, 35,  9)  (  1,  8,  5)  (  1,  8,  5)
  0  0.1135E-03  0  0.2678E-04  0 -0.1202E-04  0  0.6617E-05  1 -0.1129    
   (  1,  9,  4)  (  1, 30,  4)  (  1, 19, 11)  (  1, 20, 11)  (  1, 34, 12)
  0  0.2074E-01  0  0.1076E-01  0  0.6884E-02  0 -0.6944E-02  0  0.1971E-02
   (  1, 26, 10)  (  1, 19, 12)  (  1, 36, 19)  (  1, 36, 19)  (  1, 37,  8)
  0  0.8492E-03  0 -0.3433E-03  0 -0.2198E-03  0  0.8999E-04  0  0.3972E-04
   (  1, 35,  9)  (  1, 35,  8)  (  1,  8,  5)  (  1,  8,  5)  (  1,  7, 12)
  0 -0.6769E-05  1 -0.3596E-01  0 -0.6657E-02  0 -0.3555E-02  0 -0.1792E-02
   (  1, 28, 10)  (  1, 34, 12)  (  1, 28,  9)  (  1,  8,  5)  (  1,  9,  4)
  0 -0.1741E-02  0  0.7612E-03  0  0.3835E-03  0  0.1277E-03  0 -0.8820E-04
   (  1, 36, 19)  (  1, 36, 19)  (  1, 35,  8)  (  1,  8,  5)  (  1,  8,  5)
  0 -0.2719E-04  0  0.1285E-04  0 -0.2181E-05  1 -0.1132E-01  0 -0.2273E-02
   (  1,  9,  4)  (  1,  7, 12)  (  1, 28, 10)  (  1, 34, 12)  (  1, 28,  9)
  0 -0.1176E-02  0 -0.6123E-03  0  0.3124E-03  0  0.1687E-03  0  0.9152E-04
   (  1, 26, 10)  (  1,  9,  4)  (  1, 37,  7)  (  1, 35,  9)  (  1, 36, 19)
  0 -0.6329E-04  0 -0.2632E-04  0 -0.7802E-05  1 -0.3539E-02  0 -0.7212E-03
   (  1, 36, 19)  (  1,  8,  5)  (  1,  9,  4)  (  1, 34, 12)  (  1, 28,  9)
  0 -0.3806E-03  0  0.1783E-03  0  0.1079E-03  0 -0.1100E-03  0  0.3814E-04
   (  1, 26, 10)  (  1, 35,  8)  (  1, 37, 19)  (  1, 36, 19)  (  1, 35,  9)
  0  0.1908E-04  0 -0.7880E-05  1 -0.1100E-02  0 -0.2188E-03  0  0.1197E-03
   (  1,  8,  5)  (  1,  8,  5)  (  1, 34, 12)  (  1, 35,  8)  (  1, 19, 11)
  0 -0.7368E-04  0  0.4649E-04  0 -0.3395E-04  0  0.1275E-04  0  0.6235E-05
   (  1, 36, 19)  (  1, 37, 19)  (  1, 36, 19)  (  1, 35,  9)  (  1,  8,  5)
  1 -0.3390E-03  0 -0.7316E-04  0  0.3781E-04  0 -0.2758E-04  0  0.1582E-04
   (  1, 34, 12)  (  1, 35,  8)  (  1, 19, 11)  (  1, 36, 19)  (  1, 37, 19)
  0 -0.9702E-05  1 -0.1043E-03  0 -0.2785E-04  0  0.1651E-04  0 -0.1276E-04
   (  1, 36, 19)  (  1, 34, 12)  (  1, 35,  8)  (  1, 36, 19)  (  1, 36, 19)
  0  0.4133E-05  1 -0.3033E-04  0  0.8019E-05  1 -0.6192E-05
   (  1, 26, 10)  (  1, 34, 12)  (  1, 26, 10)  (  1, 26, 10)

 MAXIMUM RESIDUAL FOR EACH ITERATION (1 INDICATES THE FIRST INNER ITERATION):

    RESIDUAL       RESIDUAL       RESIDUAL       RESIDUAL       RESIDUAL    
   LAYER,ROW,COL  LAYER,ROW,COL  LAYER,ROW,COL  LAYER,ROW,COL  LAYER,ROW,COL
 ---------------------------------------------------------------------------
  1   315.6      0   174.6      0  -90.54      0   43.98      0   20.01    
   (  1, 11, 15)  (  1, 11, 15)  (  1, 39,  7)  (  1, 11, 15)  (  1, 11, 15)
  0   11.24      0   5.588      0  -1.542      0  0.6128      0  0.1912    
   (  1, 18, 14)  (  1, 18, 14)  (  1, 18, 13)  (  1, 18, 12)  (  1, 39,  7)
  0  0.8733E-01  0  0.2550E-01  0 -0.1298E-01  0 -0.5444E-02  0  0.1705E-02
   (  1, 16, 13)  (  1, 25, 15)  (  1, 15, 13)  (  1, 15, 13)  (  1, 14, 12)
  1   108.3      0   62.05      0   29.21      0   14.02      0   6.839    
   (  1, 11, 15)  (  1, 11, 15)  (  1, 11, 15)  (  1, 11, 15)  (  1, 11, 15)
  0   2.860      0   1.541      0 -0.4086      0  0.1781      0  0.5344E-01
   (  1, 18, 14)  (  1, 18, 14)  (  1, 15, 12)  (  1, 18, 12)  (  1, 16, 15)
  0  0.3132E-01  0  0.8009E-02  0 -0.3499E-02  0 -0.1026E-02  1   38.22    
   (  1, 16, 13)  (  1, 25, 15)  (  1, 12, 12)  (  1, 15, 13)  (  1, 11, 15)
  0   22.47      0   10.43      0   4.334      0   2.441      0  0.8543    
   (  1, 11, 15)  (  1, 11, 15)  (  1, 11, 15)  (  1, 11, 15)  (  1, 18, 14)
  0  0.4100      0  0.1306      0  0.5609E-01  0  0.2012E-01  0  0.8920E-02
   (  1, 18, 14)  (  1, 18, 14)  (  1, 18, 12)  (  1, 16, 15)  (  1, 16, 13)
  0  0.2514E-02  1   13.17      0   7.781      0   3.654      0   1.380    
   (  1, 25, 15)  (  1, 11, 15)  (  1, 11, 15)  (  1, 11, 15)  (  1, 11, 15)
  0  0.7572      0  0.3039      0  0.1663      0  0.5249E-01  0  0.1782E-01
   (  1, 11, 15)  (  1, 11, 15)  (  1, 18, 14)  (  1, 18, 14)  (  1, 18, 12)
  0  0.6666E-02  0  0.2418E-02  0 -0.8735E-03  1   4.385      0   2.579    
   (  1, 16, 15)  (  1, 17, 13)  (  1, 16, 14)  (  1, 11, 15)  (  1, 11, 15)
  0   1.229      0  0.4813      0  0.2064      0  0.6969E-01  0  0.4119E-01
   (  1, 11, 15)  (  1, 11, 15)  (  1, 11, 15)  (  1, 18, 14)  (  1, 18, 14)
  0  0.1820E-01  0  0.5448E-02  0  0.2096E-02  1   1.416      0  0.8266    
   (  1, 18, 14)  (  1, 18, 12)  (  1, 16, 15)  (  1, 11, 15)  (  1, 11, 15)
  0  0.3978      0  0.1692      0  0.8083E-01  0  0.3938E-01  0  0.1672E-01
   (  1, 11, 15)  (  1, 11, 15)  (  1, 11, 15)  (  1, 11, 15)  (  1, 18, 14)
  0  0.6119E-02  0  0.1660E-02  1  0.4466      0  0.2583      0  0.1252    
   (  1, 18, 14)  (  1, 18, 14)  (  1, 11, 15)  (  1, 11, 15)  (  1, 11, 15)
  0  0.5735E-01  0  0.2826E-01  0  0.1349E-01  0  0.5079E-02  0  0.1961E-02
   (  1, 11, 15)  (  1, 11, 15)  (  1, 11, 15)  (  1, 18, 14)  (  1, 18, 14)
  1  0.1387      0  0.7917E-01  0  0.3860E-01  0  0.1877E-01  0  0.9030E-02
   (  1, 11, 15)  (  1, 11, 15)  (  1, 11, 15)  (  1, 11, 15)  (  1, 11, 15)
  0  0.4261E-02  1  0.4396E-01  0  0.2494E-01  0  0.1291E-01  0  0.6436E-02
   (  1, 11, 15)  (  1, 11, 15)  (  1, 11, 15)  (  1, 11, 15)  (  1, 11, 15)
  0  0.2807E-02  1  0.1477E-01  0  0.8428E-02  1  0.1045E-01
   (  1, 11, 15)  (  1, 11, 15)  (  1, 11, 15)  (  1, 11, 15)



 OUTPUT CONTROL FOR STRESS PERIOD    2   TIME STEP    1
    SAVE HEAD FOR ALL LAYERS
    SAVE BUDGET
 UBDSV1 SAVING "         STORAGE" ON UNIT  53 AT TIME STEP  1, STRESS PERIOD   2
 UBDSV2 SAVING "   CONSTANT HEAD" ON UNIT  53 AT TIME STEP  1, STRESS PERIOD   2
 UBDSV1 SAVING "FLOW RIGHT FACE " ON UNIT  53 AT TIME STEP  1, STRESS PERIOD   2
 UBDSV1 SAVING "FLOW FRONT FACE " ON UNIT  53 AT TIME STEP  1, STRESS PERIOD   2

 HEAD WILL BE SAVED ON UNIT   51 AT END OF TIME STEP    1, STRESS PERIOD    2
1
  VOLUMETRIC BUDGET FOR ENTIRE MODEL AT END OF TIME STEP    1, STRESS PERIOD   2
  ------------------------------------------------------------------------------

     CUMULATIVE VOLUMES      L**3       RATES FOR THIS TIME STEP      L**3/T
     ------------------                 ------------------------

           IN:                                      IN:
           ---                                      ---
             STORAGE =    11766906.0000               STORAGE =        6447.6196
       CONSTANT HEAD =           0.0000         CONSTANT HEAD =           0.0000
               WELLS =           0.0000                 WELLS =           0.0000
       RIVER LEAKAGE =     3305799.0000         RIVER LEAKAGE =        1810.8748
            RECHARGE =     7437633.5000              RECHARGE =        4065.1018

            TOTAL IN =    22510338.0000              TOTAL IN =       12323.5957

          OUT:                                     OUT:
          ----                                     ----
             STORAGE =       29506.4453               STORAGE =          16.1679
       CONSTANT HEAD =     1939633.1250         CONSTANT HEAD =        1061.7289
               WELLS =     4232474.5000                 WELLS =        2318.1370
       RIVER LEAKAGE =    16309076.0000         RIVER LEAKAGE =        8927.7549
            RECHARGE =           0.0000              RECHARGE =           0.0000

           TOTAL OUT =    22510690.0000             TOTAL OUT =       12323.7891

            IN - OUT =        -352.0000              IN - OUT =          -0.1934

 PERCENT DISCREPANCY =          -0.00     PERCENT DISCREPANCY =          -0.00






         TIME SUMMARY AT END OF TIME STEP    1 IN STRESS PERIOD    2
                    SECONDS     MINUTES      HOURS       DAYS        YEARS
                    -----------------------------------------------------------
   TIME STEP LENGTH 1.57680E+08 2.62800E+06  43800.      1825.0      4.9966    
 STRESS PERIOD TIME 1.57680E+08 2.62800E+06  43800.      1825.0      4.9966    
         TOTAL TIME 1.57766E+08 2.62944E+06  43824.      1826.0      4.9993    
1
1
                            STRESS PERIOD NO.    3, LENGTH =   1.000000    
                            -----------------------------------------------

                              NUMBER OF TIME STEPS =     1

                               MULTIPLIER FOR DELT =     1.000

                            INITIAL TIME STEP SIZE =   1.000000    

 WELL NO.  LAYER   ROW   COL   STRESS RATE         
 --------------------------------------------------
      1      1      9     16      -866.8    
      2      1     11     13      -425.7    
      3      1     20     14      -437.3    
      4      1     26     10      -83.07    
      5      1     29      6      -72.97    
      6      1     34     12      -441.3    

      6 WELLS

 REACH NO.  LAYER   ROW   COL     STAGE      CONDUCTANCE     BOTTOM EL.         
 -------------------------------------------------------------------------------
      1      1      1     15       20.42           4787.           20.00    
      2      1      2     15       19.91           4742.           19.75    
      3      1      3     15       19.99           5492.           19.50    
      4      1      4     15       19.27           1590.           19.25    
      5      1      5     15       19.50           5637.           19.00    
      6      1      6     15       18.58           4406.           18.75    
      7      1      7     15       18.81           4429.           18.50    
      8      1      8     15       18.60           4888.           18.25    
      9      1      9     15       18.71           4226.           18.00    
     10      1     10     15       18.93           4330.           17.75    
     11      1     11     15       17.91           3504.           17.50    
     12      1     12     15       17.57           3366.           17.25    
     13      1     13     15       17.23           5567.           17.00    
     14      1     14     15       17.37           3705.           16.75    
     15      1     15     15       16.84           4087.           16.50    
     16      1     16     15       16.80           4525.           16.25    
     17      1     17     15       16.32           2765.           16.00    
     18      1     18     15       16.30           4262.           15.75    
     19      1     19     15       16.15           4252.           15.50    
     20      1     20     15       16.09           5690.           15.25    
     21      1     21     15       15.51           6752.           15.00    
     22      1     22     15       15.36           4245.           14.75    
     23      1     23     15       15.26           4470.           14.50    
     24      1     24     15       15.14           3963.           14.25    
     25      1     25     15       14.67           3235.           14.00    
     26      1     26     15       14.65           3558.           13.75    
     27      1     27     15       14.23           921.2           13.50    
     28      1     28     15       13.87           3187.           13.25    
     29      1     29     15       13.77           4690.           13.00    
     30      1     30     15       13.55           3804.           12.75    
     31      1     31     15       13.21           3628.           12.50    
     32      1     32     15       13.12           4877.           12.25    
     33      1     33     15       12.89           3463.           12.00    
     34      1     34     15       12.61           4895.           11.75    
     35      1     35     15       12.35           5345.           11.50    
     36      1     36     15       12.11           4571.           11.25    
     37      1     37     15       12.03           3408.           11.00    
     38      1     38     15       11.48           5125.           10.75    
     39      1     39     15       11.74           3453.           10.50    
     40      1     40     15       11.44           5151.           10.25    

     40 RIVER REACHES

                 RECHARGE =  9.358508E-05

 SOLVING FOR HEAD 


    13 CALLS TO PCG ROUTINE FOR TIME STEP   1 IN STRESS PERIOD    3
   157 TOTAL ITERATIONS

 MAXIMUM HEAD CHANGE FOR EACH ITERATION (1 INDICATES THE FIRST INNER ITERATION):

    HEAD CHANGE    HEAD CHANGE    HEAD CHANGE    HEAD CHANGE    HEAD CHANGE 
   LAYER,ROW,COL  LAYER,ROW,COL  LAYER,ROW,COL  LAYER,ROW,COL  LAYER,ROW,COL
 ---------------------------------------------------------------------------
  1  -2.939      0  -3.311      0  -1.736      0 -0.7538      0 -0.3647    
   (  1,  9,  4)  (  1,  8,  5)  (  1,  1,  4)  (  1, 22,  1)  (  1,  1,  8)
  0 -0.2789      0 -0.1462      0  0.7774E-01  0 -0.6443E-01  0  0.4129E-01
   (  1,  4,  2)  (  1, 15,  3)  (  1,  9,  4)  (  1,  4,  1)  (  1, 36, 19)
  0  0.1929E-01  0 -0.1098E-01  0  0.7269E-02  0 -0.5811E-02  0  0.2973E-02
   (  1, 31,  3)  (  1, 36,  8)  (  1, 12,  2)  (  1,  9,  4)  (  1, 29,  6)
  0 -0.1290E-02  0 -0.5143E-03  0  0.3673E-03  0 -0.8597E-04  0 -0.7400E-04
   (  1, 13,  2)  (  1,  3,  2)  (  1, 24, 11)  (  1, 27, 12)  (  1,  1,  5)
  0  0.4583E-04  0  0.1506E-04  0 -0.1543E-04  0  0.9613E-05  1 -0.8413    
   (  1, 32,  1)  (  1, 10,  4)  (  1,  9,  4)  (  1, 12,  2)  (  1,  9,  4)
  0 -0.5305      0 -0.4367      0 -0.1307      0  0.7607E-01  0  0.3841E-01
   (  1,  8,  5)  (  1,  9,  4)  (  1,  1,  8)  (  1, 35,  8)  (  1, 35,  8)
  0  0.2998E-01  0  0.2049E-01  0 -0.1600E-01  0 -0.9116E-02  0  0.5399E-02
   (  1, 28,  7)  (  1, 23, 11)  (  1, 36, 19)  (  1,  4,  1)  (  1,  8,  5)
  0 -0.3216E-02  0  0.1891E-02  0 -0.7068E-03  0 -0.7636E-03  0  0.2311E-03
   (  1,  4,  2)  (  1,  8,  5)  (  1,  8,  5)  (  1,  9,  4)  (  1, 25,  7)
  0  0.1172E-03  0  0.5892E-04  0  0.2001E-04  0 -0.1144E-04  0 -0.9903E-05
   (  1, 27,  4)  (  1, 23, 11)  (  1, 26, 10)  (  1, 27, 12)  (  1,  3,  3)
  1 -0.2244      0 -0.3169      0  0.1205      0 -0.5113E-01  0  0.3802E-01
   (  1, 28,  7)  (  1,  9,  4)  (  1,  9,  4)  (  1,  9,  4)  (  1, 35,  8)
  0  0.1848E-01  0  0.1178E-01  0 -0.1278E-01  0 -0.5801E-02  0  0.3811E-02
   (  1, 26, 10)  (  1, 28,  7)  (  1,  8,  5)  (  1, 36, 19)  (  1,  8,  5)
  0 -0.2767E-02  0  0.9296E-03  0  0.3198E-03  0  0.3865E-03  0 -0.3427E-03
   (  1,  4,  2)  (  1,  2,  2)  (  1,  2,  5)  (  1,  9,  4)  (  1,  9,  4)
  0 -0.1002E-03  0  0.4453E-04  0  0.3008E-04  0 -0.1485E-04  0  0.2611E-05
   (  1,  8,  5)  (  1, 25,  3)  (  1, 14,  3)  (  1, 18,  4)  (  1, 27, 12)
  1  0.1080      0 -0.9022E-01  0 -0.3982E-01  0 -0.1655E-01  0  0.1085E-01
   (  1,  9,  4)  (  1,  9,  4)  (  1,  8,  5)  (  1,  8,  5)  (  1, 28,  1)
  0  0.6420E-02  0  0.4253E-02  0 -0.3197E-02  0 -0.1721E-02  0  0.1078E-02
   (  1,  8,  5)  (  1, 26, 10)  (  1,  8,  5)  (  1, 36, 19)  (  1,  8,  5)
  0 -0.7990E-03  0  0.3084E-03  0  0.1172E-03  0  0.1438E-03  0 -0.1034E-03
   (  1,  8,  4)  (  1,  3,  2)  (  1, 32,  1)  (  1,  9,  3)  (  1,  9,  4)
  0  0.3001E-04  0 -0.1251E-04  0  0.9260E-05  1  0.3397E-01  0 -0.2712E-01
   (  1, 24, 11)  (  1, 11,  2)  (  1, 17,  4)  (  1,  9,  4)  (  1,  9,  4)
  0 -0.1244E-01  0 -0.5781E-02  0  0.2530E-02  0  0.2593E-02  0  0.1813E-02
   (  1,  8,  5)  (  1,  9,  4)  (  1, 27, 12)  (  1,  8,  5)  (  1, 19,  4)
  0 -0.9354E-03  0 -0.5187E-03  0  0.3338E-03  0 -0.2572E-03  0  0.1044E-03
   (  1,  8,  5)  (  1, 36, 19)  (  1, 36, 19)  (  1,  8,  4)  (  1,  3,  2)
  0  0.3358E-04  0 -0.3886E-04  0  0.4221E-04  0  0.9042E-05  1 -0.6788E-02
   (  1, 32,  1)  (  1,  9,  4)  (  1,  9,  1)  (  1, 24, 11)  (  1, 34, 12)
  0 -0.4075E-02  0 -0.5220E-02  0  0.1782E-02  0 -0.1262E-02  0  0.8819E-03
   (  1,  6, 15)  (  1,  9,  4)  (  1,  9,  4)  (  1,  9,  4)  (  1,  9,  4)
  0  0.4877E-03  0 -0.2871E-03  0 -0.1519E-03  0  0.1053E-03  0 -0.8774E-04
   (  1,  3,  3)  (  1,  8,  5)  (  1, 36, 19)  (  1, 36, 19)  (  1,  8,  5)
  0  0.3615E-04  0  0.9029E-05  1 -0.2035E-02  0  0.3383E-02  0 -0.1532E-02
   (  1,  3,  2)  (  1, 30, 12)  (  1, 34, 12)  (  1,  9,  4)  (  1,  9,  4)
  0  0.3322E-03  0 -0.2973E-03  0  0.2432E-03  0  0.1440E-03  0 -0.8258E-04
   (  1, 30,  9)  (  1, 28,  7)  (  1, 35,  8)  (  1, 30, 12)  (  1,  8,  5)
  0  0.5618E-04  0  0.3248E-04  0 -0.3101E-04  0  0.1299E-04  0  0.3622E-05
   (  1,  8,  5)  (  1, 36, 19)  (  1,  8,  5)  (  1,  3,  2)  (  1, 20,  4)
  1 -0.7545E-03  0  0.1200E-02  0 -0.2891E-03  0  0.1189E-03  0 -0.1068E-03
   (  1,  9,  4)  (  1,  9,  4)  (  1,  9,  4)  (  1, 33, 11)  (  1, 28,  7)
  0  0.7611E-04  0  0.4312E-04  0 -0.1736E-04  0  0.1745E-04  0  0.9880E-05
   (  1, 35,  8)  (  1, 30, 12)  (  1, 28, 10)  (  1,  8,  5)  (  1, 36, 19)
  1 -0.3053E-03  0  0.3632E-03  0  0.9400E-04  0  0.3792E-04  0 -0.3698E-04
   (  1,  9,  4)  (  1,  9,  4)  (  1, 26, 10)  (  1, 33, 11)  (  1, 28,  7)
  0  0.2266E-04  0 -0.1178E-04  0  0.8566E-05  1 -0.1041E-03  0  0.1103E-03
   (  1, 35,  8)  (  1, 36, 19)  (  1, 36, 19)  (  1,  9,  4)  (  1,  9,  4)
  0  0.2685E-04  0  0.1359E-04  0 -0.1278E-04  0  0.7821E-05  1 -0.2554E-04
   (  1, 26, 10)  (  1, 33, 11)  (  1, 28,  7)  (  1, 36, 19)  (  1,  9,  4)
  0  0.3624E-04  0 -0.1225E-04  0  0.7468E-05  1 -0.1132E-04  0  0.1088E-04
   (  1,  9,  4)  (  1,  9,  4)  (  1, 18,  4)  (  1,  9,  1)  (  1,  9,  4)
  0  0.5895E-05  1 -0.2944E-05
   (  1,  8,  5)  (  1, 36, 19)

 MAXIMUM RESIDUAL FOR EACH ITERATION (1 INDICATES THE FIRST INNER ITERATION):

    RESIDUAL       RESIDUAL       RESIDUAL       RESIDUAL       RESIDUAL    
   LAYER,ROW,COL  LAYER,ROW,COL  LAYER,ROW,COL  LAYER,ROW,COL  LAYER,ROW,COL
 ---------------------------------------------------------------------------
  1  -1574.      0  -1144.      0  -627.9      0  -358.7      0   216.8    
   (  1, 20, 15)  (  1, 20, 15)  (  1, 20, 15)  (  1, 20, 15)  (  1,  6, 15)
  0   136.3      0   72.38      0   38.84      0   18.65      0   11.66    
   (  1,  6, 15)  (  1,  6, 15)  (  1,  6, 15)  (  1,  6, 15)  (  1,  6, 15)
  0  -4.747      0   2.865      0   1.451      0   1.106      0  0.6030    
   (  1,  2, 14)  (  1, 39,  7)  (  1, 39,  7)  (  1, 39,  7)  (  1, 39,  7)
  0  0.2533      0  0.1277      0 -0.8578E-01  0  0.4484E-01  0  0.2473E-01
   (  1,  1, 15)  (  1, 13, 11)  (  1, 27,  9)  (  1, 11, 12)  (  1, 16, 12)
  0 -0.1121E-01  0  0.5782E-02  0  0.4935E-02  0  0.2788E-02  1  -424.3    
   (  1, 12, 12)  (  1, 39, 15)  (  1, 39, 15)  (  1, 39, 15)  (  1, 20, 15)
  0  -313.7      0  -178.0      0  -98.77      0   58.52      0   39.41    
   (  1, 20, 15)  (  1, 20, 15)  (  1, 20, 15)  (  1,  6, 15)  (  1,  6, 15)
  0   19.49      0   10.06      0   6.475      0   2.813      0   1.168    
   (  1,  6, 15)  (  1,  6, 15)  (  1,  6, 15)  (  1,  6, 15)  (  1,  6, 15)
  0  0.5598      0  0.2634      0  0.1393      0  0.1147      0  0.4672E-01
   (  1, 15, 13)  (  1, 15, 13)  (  1, 39,  7)  (  1, 38, 15)  (  1, 39,  7)
  0  0.2349E-01  0  0.9463E-02  0 -0.1265E-01  0  0.5876E-02  0  0.2055E-02
   (  1, 17, 15)  (  1, 16, 12)  (  1, 27,  9)  (  1, 16, 12)  (  1, 39, 15)
  1   178.2      0   98.29      0   53.46      0   27.72      0   20.49    
   (  1,  6, 15)  (  1,  6, 15)  (  1,  6, 15)  (  1,  7, 14)  (  1,  7, 14)
  0   15.22      0   8.926      0   4.986      0   2.988      0  -1.353    
   (  1,  7, 14)  (  1,  7, 14)  (  1,  7, 14)  (  1,  7, 14)  (  1,  7, 13)
  0  0.8629      0  0.4148      0  0.1949      0  0.1062      0  0.7390E-01
   (  1,  8, 13)  (  1,  8, 13)  (  1,  8, 13)  (  1,  8, 13)  (  1,  9, 12)
  0  0.3525E-01  0  0.1296E-01  0  0.6986E-02  0  0.5021E-02  0  0.2951E-02
   (  1,  9, 12)  (  1,  9, 12)  (  1, 10, 11)  (  1, 10, 11)  (  1, 10, 11)
  1   63.57      0   39.99      0   16.06      0   9.341      0   6.650    
   (  1,  6, 15)  (  1,  6, 15)  (  1,  6, 15)  (  1,  7, 14)  (  1,  7, 14)
  0   4.814      0   2.740      0   1.518      0  0.8836      0  0.4187    
   (  1,  7, 14)  (  1,  7, 14)  (  1,  7, 14)  (  1,  7, 14)  (  1,  8, 13)
  0  0.2732      0  0.1330      0  0.5749E-01  0  0.3412E-01  0  0.2409E-01
   (  1,  8, 13)  (  1,  8, 13)  (  1,  8, 13)  (  1,  8, 13)  (  1,  9, 12)
  0  0.9887E-02  0  0.3739E-02  0  0.2154E-02  1   18.94      0   11.40    
   (  1,  9, 12)  (  1,  9, 12)  (  1, 10, 11)  (  1,  6, 15)  (  1,  6, 15)
  0   4.880      0   3.143      0   2.460      0   1.749      0  0.8436    
   (  1,  6, 15)  (  1,  7, 14)  (  1,  7, 14)  (  1,  7, 14)  (  1,  7, 14)
  0  0.4542      0  0.2545      0  0.1372      0  0.8752E-01  0  0.4348E-01
   (  1,  7, 14)  (  1,  7, 14)  (  1,  8, 13)  (  1,  8, 13)  (  1,  8, 13)
  0  0.1858E-01  0  0.1216E-01  0  0.8113E-02  0  0.3145E-02  1   5.394    
   (  1,  8, 13)  (  1,  8, 13)  (  1,  9, 12)  (  1,  9, 12)  (  1,  6, 15)
  0   2.327      0   1.363      0   1.037      0  0.8226      0  0.5650    
   (  1,  6, 15)  (  1,  6, 15)  (  1,  7, 14)  (  1,  7, 14)  (  1,  7, 14)
  0  0.2609      0  0.1367      0  0.7366E-01  0  0.4445E-01  0  0.2817E-01
   (  1,  7, 14)  (  1,  7, 14)  (  1,  7, 14)  (  1,  8, 13)  (  1,  8, 13)
  0  0.1404E-01  0  0.6087E-02  1   1.893      0   1.043      0  0.4820    
   (  1,  8, 13)  (  1,  8, 13)  (  1,  6, 15)  (  1,  6, 15)  (  1,  6, 15)
  0  0.3507      0  0.2684      0  0.1791      0  0.8300E-01  0  0.4112E-01
   (  1,  7, 14)  (  1,  7, 14)  (  1,  7, 14)  (  1,  7, 14)  (  1,  7, 14)
  0  0.2153E-01  0  0.1435E-01  0  0.9055E-02  0  0.4529E-02  0  0.2041E-02
   (  1,  7, 14)  (  1,  8, 13)  (  1,  8, 13)  (  1,  8, 13)  (  1,  8, 13)
  1  0.6994      0  0.3265      0  0.1553      0  0.1150      0  0.8694E-01
   (  1,  6, 15)  (  1,  6, 15)  (  1,  6, 15)  (  1,  7, 14)  (  1,  7, 14)
  0  0.5568E-01  0  0.2706E-01  0  0.1210E-01  0  0.6259E-02  0  0.4539E-02
   (  1,  7, 14)  (  1,  7, 14)  (  1,  7, 14)  (  1,  7, 14)  (  1,  8, 13)
  1  0.2413      0  0.1043      0  0.4994E-01  0  0.3798E-01  0  0.2838E-01
   (  1,  6, 15)  (  1,  6, 15)  (  1,  6, 15)  (  1,  7, 14)  (  1,  7, 14)
  0  0.1729E-01  0  0.9392E-02  0  0.4960E-02  1  0.7872E-01  0  0.3507E-01
   (  1,  7, 14)  (  1,  7, 14)  (  1,  7, 14)  (  1,  6, 15)  (  1,  6, 15)
  0  0.1713E-01  0  0.1259E-01  0  0.9112E-02  0  0.6653E-02  1  0.2691E-01
   (  1,  6, 15)  (  1,  7, 14)  (  1,  7, 14)  (  1,  7, 14)  (  1,  6, 15)
  0  0.1412E-01  0  0.7598E-02  0  0.3650E-02  1  0.9974E-02  0  0.6813E-02
   (  1,  6, 15)  (  1,  6, 15)  (  1,  7, 14)  (  1,  6, 15)  (  1,  6, 15)
  0  0.1673E-02  1  0.4894E-02
   (  1,  6, 15)  (  1,  6, 15)



 OUTPUT CONTROL FOR STRESS PERIOD    3   TIME STEP    1
    SAVE HEAD FOR ALL LAYERS
    SAVE BUDGET
 UBDSV2 SAVING "   CONSTANT HEAD" ON UNIT  53 AT TIME STEP  1, STRESS PERIOD   3
 UBDSV1 SAVING "FLOW RIGHT FACE " ON UNIT  53 AT TIME STEP  1, STRESS PERIOD   3
 UBDSV1 SAVING "FLOW FRONT FACE " ON UNIT  53 AT TIME STEP  1, STRESS PERIOD   3

 HEAD WILL BE SAVED ON UNIT   51 AT END OF TIME STEP    1, STRESS PERIOD    3
1
  VOLUMETRIC BUDGET FOR ENTIRE MODEL AT END OF TIME STEP    1, STRESS PERIOD   3
  ------------------------------------------------------------------------------

     CUMULATIVE VOLUMES      L**3       RATES FOR THIS TIME STEP      L**3/T
     ------------------                 ------------------------

           IN:                                      IN:
           ---                                      ---
             STORAGE =    11766906.0000               STORAGE =           0.0000
       CONSTANT HEAD =         257.7489         CONSTANT HEAD =         257.7489
               WELLS =           0.0000                 WELLS =           0.0000
       RIVER LEAKAGE =     3309094.0000         RIVER LEAKAGE =        3294.9131
            RECHARGE =     7441698.5000              RECHARGE =        4065.1018

            TOTAL IN =    22517956.0000              TOTAL IN =        7617.7637

          OUT:                                     OUT:
          ----                                     ----
             STORAGE =       29506.4453               STORAGE =           0.0000
       CONSTANT HEAD =     1939867.3750         CONSTANT HEAD =         234.2874
               WELLS =     4234801.5000                 WELLS =        2327.2019
       RIVER LEAKAGE =    16314132.0000         RIVER LEAKAGE =        5056.2900
            RECHARGE =           0.0000              RECHARGE =           0.0000

           TOTAL OUT =    22518308.0000             TOTAL OUT =        7617.7793

            IN - OUT =        -352.0000              IN - OUT =      -1.5625E-02

 PERCENT DISCREPANCY =          -0.00     PERCENT DISCREPANCY =          -0.00






         TIME SUMMARY AT END OF TIME STEP    1 IN STRESS PERIOD    3
                    SECONDS     MINUTES      HOURS       DAYS        YEARS
                    -----------------------------------------------------------
   TIME STEP LENGTH  86400.      1440.0      24.000      1.0000     2.73785E-03
 STRESS PERIOD TIME  86400.      1440.0      24.000      1.0000     2.73785E-03
         TOTAL TIME 1.57853E+08 2.63088E+06  43848.      1827.0      5.0021    
1

 Run end date and time (yyyy/mm/dd hh:mm:ss): 2016/05/11 16:06:31
 Elapsed run time:  0.018 Seconds

